@<TRIPOS>MOLECULE
tmp/1m13A00.pdb
 258 246 0 0 0
SMALL
GASTEIGER

@<TRIPOS>ATOM
      1  N         19.0230   81.5710    0.4860 N.3    45  LEU45      -0.1245
      2  CA        18.8010   80.9190   -0.8000 C.3    45  LEU45       0.1561
      3  C         20.0090   80.0990   -1.2420 C.2    45  LEU45       0.2260
      4  O         19.8730   79.1630   -2.0300 O.2    45  LEU45      -0.2867
      5  CB        18.4780   81.9620   -1.8730 C.3    45  LEU45       0.0270
      6  CG        17.1920   82.7820   -1.7290 C.3    45  LEU45       0.0019
      7  CD1       17.2440   83.6160   -0.4680 C.3    45  LEU45       0.0001
      8  CD2       17.0210   83.6790   -2.9420 C.3    45  LEU45       0.0001
      9  N         20.1740   76.4830   -1.7590 N.3    48  LEU48      -0.1245
     10  CA        19.1500   76.0970   -2.7300 C.3    48  LEU48       0.1561
     11  C         19.6770   76.2460   -4.1450 C.2    48  LEU48       0.2260
     12  O         20.2710   77.2630   -4.4890 O.2    48  LEU48      -0.2867
     13  CB        17.9110   76.9820   -2.5740 C.3    48  LEU48       0.0270
     14  CG        16.9590   76.6470   -1.4290 C.3    48  LEU48       0.0019
     15  CD1       16.5640   77.9110   -0.6730 C.3    48  LEU48       0.0001
     16  CD2       15.7270   75.9400   -1.9930 C.3    48  LEU48       0.0001
     17  N         18.1740   74.6520   -7.9060 N.3    50  VAL50      -0.1245
     18  CA        17.3600   73.7400   -8.6790 C.3    50  VAL50       0.1561
     19  C         17.1370   74.2570  -10.0850 C.2    50  VAL50       0.2260
     20  O         16.7670   75.4140  -10.2830 O.2    50  VAL50      -0.2867
     21  CB        15.9840   73.5380   -8.0230 C.3    50  VAL50       0.0252
     22  CG1       16.1520   72.9330   -6.6520 C.3    50  VAL50       0.0019
     23  CG2       15.2500   74.8720   -7.9310 C.3    50  VAL50       0.0019
     24  N         19.3730   86.7280   -7.4220 N.3    75  ILE75      -0.1245
     25  CA        18.9070   85.5240   -6.7430 C.3    75  ILE75       0.1561
     26  C         17.3790   85.4180   -6.4480 C.2    75  ILE75       0.2260
     27  O         16.9330   84.4390   -5.8330 O.2    75  ILE75      -0.2867
     28  CB        19.6690   85.4080   -5.4480 C.3    75  ILE75       0.0252
     29  CG1       19.5660   86.7330   -4.6890 C.3    75  ILE75       0.0019
     30  CG2       21.1250   85.0310   -5.7030 C.3    75  ILE75       0.0019
     31  CD1       20.2740   86.7350   -3.3490 C.3    75  ILE75       0.0001
     32  N         13.6520   83.3180   -9.3100 N.3    78  LEU78      -0.1231
     33  CA        12.8010   82.1380   -9.2440 C.3    78  LEU78       0.1693
     34  C         11.6810   82.2130   -8.2010 C.2    78  LEU78       0.2591
     35  O         10.8240   81.3260   -8.1350 O.2    78  LEU78      -0.2718
     36  CB        13.6870   80.9150   -8.9950 C.3    78  LEU78       0.0284
     37  CG        13.4420   79.6510   -9.8260 C.3    78  LEU78       0.0019
     38  CD1       13.0780   80.0090  -11.2510 C.3    78  LEU78       0.0001
     39  CD2       14.7000   78.7800   -9.7910 C.3    78  LEU78       0.0001
     40  N         11.6770   83.2770   -7.4010 N.am   79  LEU79      -0.1980
     41  CA        10.6700   83.4450   -6.3610 C.3    79  LEU79       0.1596
     42  C          9.2360   83.4760   -6.8690 C.2    79  LEU79       0.2287
     43  O          8.3750   82.7840   -6.3330 O.2    79  LEU79      -0.2864
     44  CB        10.9560   84.7040   -5.5370 C.3    79  LEU79       0.0297
     45  CG        12.1720   84.5860   -4.6170 C.3    79  LEU79       0.0022
     46  CD1       12.3790   85.8910   -3.8640 C.3    79  LEU79       0.0001
     47  CD2       11.9660   83.4310   -3.6440 C.3    79  LEU79       0.0001
     48  N          8.1500   79.9140   -7.8270 N.3    82  MET82      -0.1230
     49  CA         8.0240   79.0840   -6.6430 C.3    82  MET82       0.1702
     50  C          6.8270   79.5060   -5.7830 C.2    82  MET82       0.2592
     51  O          6.1790   78.6660   -5.1660 O.2    82  MET82      -0.2718
     52  CB         9.3260   79.1280   -5.8460 C.3    82  MET82       0.0401
     53  CG        10.4970   78.4540   -6.5770 C.3    82  MET82       0.0596
     54  SD        10.1390   76.7530   -7.0800 S.3    82  MET82      -0.1393
     55  CE        11.6180   76.3760   -7.9660 C.3    82  MET82       0.0692
     56  N          6.5320   80.8020   -5.7560 N.am   83  ALA83      -0.1980
     57  CA         5.3820   81.2990   -5.0050 C.3    83  ALA83       0.1597
     58  C          4.1330   80.7000   -5.6500 C.2    83  ALA83       0.2287
     59  O          3.2010   80.2970   -4.9590 O.2    83  ALA83      -0.2864
     60  CB         5.3270   82.8160   -5.0610 C.3    83  ALA83       0.0319
     61  N          3.9910   77.8460   -7.4060 N.3    85  MET85      -0.1230
     62  CA         3.9590   76.4010   -7.1400 C.3    85  MET85       0.1702
     63  C          3.4600   76.1810   -5.7070 C.2    85  MET85       0.2593
     64  O          2.6180   75.3240   -5.4600 O.2    85  MET85      -0.2718
     65  CB         5.3540   75.7790   -7.3050 C.3    85  MET85       0.0401
     66  CG         5.5810   74.4820   -6.5060 C.3    85  MET85       0.0596
     67  SD         4.3450   73.2390   -6.8740 S.3    85  MET85      -0.1393
     68  CE         5.1870   72.2850   -8.2060 C.3    85  MET85       0.0692
     69  N          3.9870   76.9660   -4.7740 N.am   86  SER86      -0.1952
     70  CA         3.5940   76.8760   -3.3700 C.3    86  SER86       0.1924
     71  C          2.0970   77.0460   -3.2290 C.2    86  SER86       0.2314
     72  O          1.4380   76.2840   -2.5340 O.2    86  SER86      -0.2863
     73  CB         4.2540   77.9770   -2.5400 C.3    86  SER86       0.2116
     74  OG         5.6510   77.8220   -2.4940 O.3    86  SER86      -0.2180
     75  N          0.0960   74.1270   -4.4790 N.3    89  MET89      -0.1230
     76  CA         0.1720   73.0480   -3.4970 C.3    89  MET89       0.1702
     77  C         -0.6970   73.3240   -2.2630 C.2    89  MET89       0.2592
     78  O         -1.4060   72.4390   -1.7810 O.2    89  MET89      -0.2718
     79  CB         1.6260   72.8310   -3.0520 C.3    89  MET89       0.0401
     80  CG         2.5220   72.2220   -4.1250 C.3    89  MET89       0.0596
     81  SD         1.9120   70.6180   -4.7180 S.3    89  MET89      -0.1393
     82  CE         2.3600   69.5550   -3.3290 C.3    89  MET89       0.0692
     83  N         -0.6300   74.5510   -1.7530 N.am   90  PHE90      -0.1976
     84  CA        -1.4010   74.9460   -0.5730 C.3    90  PHE90       0.1639
     85  C         -2.9020   74.7730   -0.7990 C.2    90  PHE90       0.2290
     86  O         -3.6290   74.3310    0.0950 O.2    90  PHE90      -0.2864
     87  CB        -1.0900   76.4060   -0.2140 C.3    90  PHE90       0.0560
     88  CG         0.2130   76.5900    0.5090 C.ar   90  PHE90      -0.0200
     89  CD1        0.8800   77.8040    0.4650 C.ar   90  PHE90      -0.0042
     90  CD2        0.7490   75.5620    1.2790 C.ar   90  PHE90      -0.0042
     91  CE1        2.0670   78.0010    1.1800 C.ar   90  PHE90      -0.0003
     92  CE2        1.9330   75.7430    2.0000 C.ar   90  PHE90      -0.0003
     93  CZ         2.5940   76.9710    1.9500 C.ar   90  PHE90      -0.0000
     94  N          2.7450   73.9660    5.3870 N.3   120  PHE120     -0.1241
     95  CA         4.0940   73.7100    4.8900 C.3   120  PHE120      0.1605
     96  C          4.4470   72.2330    5.0470 C.2   120  PHE120      0.2264
     97  O          4.9380   71.5940    4.1160 O.2   120  PHE120     -0.2867
     98  CB         5.1140   74.5490    5.6720 C.3   120  PHE120      0.0534
     99  CG         6.5450   74.2040    5.3690 C.ar  120  PHE120     -0.0203
    100  CD1        7.2200   74.8250    4.3230 C.ar  120  PHE120     -0.0042
    101  CD2        7.2130   73.2400    6.1180 C.ar  120  PHE120     -0.0042
    102  CE1        8.5430   74.4930    4.0260 C.ar  120  PHE120     -0.0003
    103  CE2        8.5400   72.8980    5.8290 C.ar  120  PHE120     -0.0003
    104  CZ         9.2030   73.5260    4.7820 C.ar  120  PHE120     -0.0000
    105  N          2.6250   70.0500    2.6680 N.3   123  CYS123     -0.1221
    106  CA         3.1550   70.2390    1.3250 C.3   123  CYS123      0.1808
    107  C          4.4100   69.4010    1.1130 C.2   123  CYS123      0.2601
    108  O          4.5510   68.7490    0.0710 O.2   123  CYS123     -0.2717
    109  CB         3.4440   71.7180    1.0660 C.3   123  CYS123      0.0970
    110  SG         4.0690   72.0780   -0.5920 S.3   123  CYS123     -0.0800
    111  N          5.3250   69.4060    2.0850 N.am  124  GLN124     -0.1979
    112  CA         6.5640   68.6330    1.9940 C.3   124  GLN124      0.1601
    113  C          6.2800   67.1400    1.9240 C.2   124  GLN124      0.2287
    114  O          6.9550   66.4150    1.2000 O.2   124  GLN124     -0.2864
    115  CB         7.4740   68.9250    3.1920 C.3   124  GLN124      0.0394
    116  CG         8.0290   70.3370    3.2100 C.3   124  GLN124      0.0908
    117  CD         8.5610   70.7610    1.8620 C.2   124  GLN124      0.2608
    118  OE1        8.2310   71.8290    1.3540 O.2   124  GLN124     -0.2717
    119  NE2        9.3930   69.9200    1.2700 N.am  124  GLN124     -0.0878
    120  N          5.2190   66.5290   -1.5150 N.3   127  PHE127     -0.1241
    121  CA         6.3700   66.6580   -2.4190 C.3   127  PHE127      0.1605
    122  C          7.2830   65.4470   -2.3460 C.2   127  PHE127      0.2264
    123  O          7.9090   65.0770   -3.3370 O.2   127  PHE127     -0.2867
    124  CB         7.1920   67.9180   -2.1030 C.3   127  PHE127      0.0534
    125  CG         6.7570   69.1400   -2.8720 C.ar  127  PHE127     -0.0203
    126  CD1        6.5470   70.3520   -2.2200 C.ar  127  PHE127     -0.0042
    127  CD2        6.5380   69.0730   -4.2430 C.ar  127  PHE127     -0.0042
    128  CE1        6.1200   71.4840   -2.9240 C.ar  127  PHE127     -0.0003
    129  CE2        6.1110   70.1980   -4.9610 C.ar  127  PHE127     -0.0003
    130  CZ         5.9010   71.4050   -4.2980 C.ar  127  PHE127     -0.0000
    131  N         12.3650   66.4690   -8.1560 N.3   138  TRP138     -0.1241
    132  CA        10.9520   66.3950   -7.8240 C.3   138  TRP138      0.1605
    133  C         10.2390   66.4050   -9.1680 C.2   138  TRP138      0.2264
    134  O         10.3140   67.3860   -9.9120 O.2   138  TRP138     -0.2867
    135  CB        10.5340   67.6000   -6.9850 C.3   138  TRP138      0.0550
    136  CG        10.9870   67.5200   -5.5600 C.ar  138  TRP138      0.0003
    137  CD1       10.3200   66.9340   -4.5120 C.ar  138  TRP138      0.0946
    138  CD2       12.2120   68.0300   -5.0210 C.ar  138  TRP138      0.0152
    139  NE1       11.0570   67.0580   -3.3560 N.ar  138  TRP138     -0.2442
    140  CE2       12.2200   67.7270   -3.6370 C.ar  138  TRP138      0.0810
    141  CE3       13.3020   68.7220   -5.5690 C.ar  138  TRP138      0.0012
    142  CZ2       13.2840   68.0850   -2.7950 C.ar  138  TRP138      0.0191
    143  CZ3       14.3600   69.0820   -4.7340 C.ar  138  TRP138      0.0001
    144  CH2       14.3400   68.7650   -3.3590 C.ar  138  TRP138      0.0015
    145  N         12.1360   69.7000  -11.0170 N.3   145  TYR145     -0.1241
    146  CA        13.0570   70.5630  -10.2940 C.3   145  TYR145      0.1605
    147  C         14.1910   69.6540   -9.8430 C.2   145  TYR145      0.2264
    148  O         14.0220   68.8220   -8.9440 O.2   145  TYR145     -0.2867
    149  CB        12.3740   71.2040   -9.0840 C.3   145  TYR145      0.0534
    150  CG        11.1120   71.9710   -9.4150 C.ar  145  TYR145     -0.0201
    151  CD1        9.8690   71.3370   -9.4180 C.ar  145  TYR145     -0.0009
    152  CD2       11.1600   73.3270   -9.7310 C.ar  145  TYR145     -0.0009
    153  CE1        8.7030   72.0370   -9.7260 C.ar  145  TYR145      0.0417
    154  CE2       10.0020   74.0370  -10.0430 C.ar  145  TYR145      0.0417
    155  CZ         8.7770   73.3880  -10.0380 C.ar  145  TYR145      0.1957
    156  OH         7.6290   74.0850  -10.3390 O.3   145  TYR145     -0.2866
    157  N         21.7340   70.2450    4.3010 N.3   160  GLU160     -0.1245
    158  CA        20.5630   71.1110    4.2730 C.3   160  GLU160      0.1567
    159  C         19.4350   70.2730    4.8740 C.2   160  GLU160      0.2260
    160  O         19.0350   69.2650    4.2980 O.2   160  GLU160     -0.2867
    161  CB        20.2340   71.5120    2.8350 C.3   160  GLU160      0.0388
    162  CG        19.0780   72.4800    2.7450 C.3   160  GLU160      0.1160
    163  CD        19.3300   73.7510    3.5330 C.2   160  GLU160      0.3649
    164  OE1       18.3480   74.4370    3.8790 O.co2 160  GLU160     -0.2457
    165  OE2       20.5090   74.0680    3.7990 O.co2 160  GLU160     -0.2457
    166  N         16.1210   70.3040    5.0720 N.3   162  MET162     -0.1230
    167  CA        15.0140   69.9050    4.2150 C.3   162  MET162      0.1702
    168  C         15.3840   68.8070    3.2340 C.2   162  MET162      0.2592
    169  O         14.6030   67.8860    2.9990 O.2   162  MET162     -0.2718
    170  CB        14.4890   71.0980    3.4320 C.3   162  MET162      0.0401
    171  CG        13.2600   70.7550    2.6300 C.3   162  MET162      0.0596
    172  SD        11.7750   70.7750    3.6400 S.3   162  MET162     -0.1393
    173  CE        11.7760   69.1570    4.3420 C.3   162  MET162      0.0692
    174  N         16.5720   68.9130    2.6500 N.am  163  LEU163     -0.1980
    175  CA        17.0280   67.9130    1.7020 C.3   163  LEU163      0.1596
    176  C         17.2710   66.5850    2.4080 C.2   163  LEU163      0.2287
    177  O         16.8530   65.5380    1.9190 O.2   163  LEU163     -0.2864
    178  CB        18.3040   68.3820    0.9990 C.3   163  LEU163      0.0297
    179  CG        18.1710   68.7220   -0.4890 C.3   163  LEU163      0.0022
    180  CD1       17.8760   67.4520   -1.2800 C.3   163  LEU163      0.0001
    181  CD2       17.0580   69.7480   -0.6940 C.3   163  LEU163      0.0001
    182  N         13.9690   64.9200    2.9960 N.3   166  HIS166     -0.1241
    183  CA        13.4140   64.2490    1.8280 C.3   166  HIS166      0.1621
    184  C         14.0780   62.9220    1.4760 C.2   166  HIS166      0.2264
    185  O         13.3880   61.9630    1.1210 O.2   166  HIS166     -0.2867
    186  CB        13.4320   65.1890    0.6200 C.3   166  HIS166      0.0745
    187  CG        12.2740   66.1360    0.5870 C.ar  166  HIS166      0.0817
    188  ND1       10.9980   65.7360    0.2520 N.ar  166  HIS166     -0.2268
    189  CD2       12.1850   67.4460    0.9110 C.ar  166  HIS166      0.1154
    190  CE1       10.1730   66.7590    0.3730 C.ar  166  HIS166      0.1986
    191  NE2       10.8680   67.8100    0.7720 N.ar  166  HIS166     -0.2212
    192  N         12.1060   77.3710    8.2180 N.3   246  HIS246     -0.1241
    193  CA        11.8370   77.8400    6.8680 C.3   246  HIS246      0.1621
    194  C         10.8350   78.9860    6.8390 C.2   246  HIS246      0.2264
    195  O         10.8970   79.8380    5.9600 O.2   246  HIS246     -0.2867
    196  CB        11.3560   76.7000    5.9770 C.3   246  HIS246      0.0745
    197  CG        12.4230   75.6840    5.6790 C.ar  246  HIS246      0.0817
    198  ND1       12.7930   75.3330    4.3960 N.ar  246  HIS246     -0.2268
    199  CD2       13.2460   74.9970    6.5040 C.ar  246  HIS246      0.1154
    200  CE1       13.7990   74.4770    4.4470 C.ar  246  HIS246      0.1986
    201  NE2       14.0950   74.2560    5.7130 N.ar  246  HIS246     -0.2212
    202  N         12.7840   81.9650    7.5600 N.3   249  ARG249     -0.1231
    203  CA        13.5820   82.2500    6.3760 C.3   249  ARG249      0.1694
    204  C         12.7120   82.9670    5.3410 C.2   249  ARG249      0.2591
    205  O         13.1240   83.9640    4.7490 O.2   249  ARG249     -0.2718
    206  CB        14.1340   80.9410    5.8020 C.3   249  ARG249      0.0321
    207  CG        14.9950   81.1010    4.5670 C.3   249  ARG249      0.0489
    208  CD        15.5090   79.7530    4.0630 C.3   249  ARG249      0.2205
    209  NE        16.3560   79.0680    5.0370 N.pl3 249  ARG249     -0.0865
    210  CZ        17.0340   77.9500    4.7850 C.cat 249  ARG249      0.5346
    211  NH1       16.9690   77.3820    3.5870 N.pl3 249  ARG249      0.1354
    212  NH2       17.7850   77.4000    5.7290 N.pl3 249  ARG249      0.1354
    213  N         11.4970   82.4670    5.1440 N.am  250  LEU250     -0.1980
    214  CA        10.5760   83.0700    4.1900 C.3   250  LEU250      0.1596
    215  C         10.1740   84.4860    4.5910 C.2   250  LEU250      0.2287
    216  O         10.1540   85.3880    3.7590 O.2   250  LEU250     -0.2864
    217  CB         9.3190   82.2070    4.0380 C.3   250  LEU250      0.0297
    218  CG         8.2090   82.7870    3.1480 C.3   250  LEU250      0.0022
    219  CD1        7.4010   81.6640    2.5040 C.3   250  LEU250      0.0001
    220  CD2        7.3140   83.6960    3.9720 C.3   250  LEU250      0.0001
    221  N         12.9340   87.0610    3.8550 N.3   253  ILE253     -0.1245
    222  CA        13.0470   87.3560    2.4340 C.3   253  ILE253      0.1561
    223  C         11.8690   88.2240    1.9900 C.2   253  ILE253      0.2260
    224  O         12.0310   89.1450    1.1830 O.2   253  ILE253     -0.2867
    225  CB        13.0550   86.0650    1.6000 C.3   253  ILE253      0.0252
    226  CG1       14.3180   85.2610    1.9080 C.3   253  ILE253      0.0019
    227  CG2       12.9650   86.3980    0.1240 C.3   253  ILE253      0.0019
    228  CD1       14.3810   83.9220    1.2010 C.3   253  ILE253      0.0001
    229  N          7.0670   88.7340   -2.2990 N.3   259  PHE259     -0.1241
    230  CA         6.7830   87.7800   -3.3660 C.3   259  PHE259      0.1605
    231  C          5.6270   86.8570   -2.9720 C.2   259  PHE259      0.2264
    232  O          5.0240   86.2010   -3.8200 O.2   259  PHE259     -0.2867
    233  CB         8.0160   86.9230   -3.5970 C.3   259  PHE259      0.0534
    234  CG         8.3120   86.0080   -2.4430 C.ar  259  PHE259     -0.0203
    235  CD1        7.8670   84.6880   -2.4470 C.ar  259  PHE259     -0.0042
    236  CD2        8.9670   86.4880   -1.3140 C.ar  259  PHE259     -0.0042
    237  CE1        8.0780   83.8610   -1.3410 C.ar  259  PHE259     -0.0003
    238  CE2        9.1810   85.6720   -0.2110 C.ar  259  PHE259     -0.0003
    239  CZ         8.7330   84.3560   -0.2210 C.ar  259  PHE259     -0.0000
    240  N         -0.5690   82.7450    0.3500 N.3   264  MET264     -0.1245
    241  CA         0.5970   82.5210    1.1950 C.3   264  MET264      0.1570
    242  C          0.5920   83.5610    2.3030 C.2   264  MET264      0.2261
    243  O          0.9450   83.2660    3.4410 O.2   264  MET264     -0.2867
    244  CB         1.8820   82.6350    0.3750 C.3   264  MET264      0.0387
    245  CG         2.0420   81.5460   -0.6750 C.3   264  MET264      0.0595
    246  SD         3.4260   81.8700   -1.7720 S.3   264  MET264     -0.1393
    247  CE         4.7880   81.8530   -0.6150 C.3   264  MET264      0.0692
    248  N          0.5530   82.6670    6.2100 N.3   268  PHE268     -0.1241
    249  CA         1.6760   83.0860    7.0380 C.3   268  PHE268      0.1605
    250  C          1.3360   84.2250    7.9970 C.2   268  PHE268      0.2264
    251  O          2.1910   84.6750    8.7520 O.2   268  PHE268     -0.2867
    252  CB         2.8750   83.4830    6.1660 C.3   268  PHE268      0.0534
    253  CG         3.6190   82.3080    5.5870 C.ar  268  PHE268     -0.0203
    254  CD1        3.2020   81.7140    4.4000 C.ar  268  PHE268     -0.0042
    255  CD2        4.7240   81.7790    6.2480 C.ar  268  PHE268     -0.0042
    256  CE1        3.8760   80.6070    3.8750 C.ar  268  PHE268     -0.0003
    257  CE2        5.4050   80.6730    5.7360 C.ar  268  PHE268     -0.0003
    258  CZ         4.9810   80.0860    4.5460 C.ar  268  PHE268     -0.0000
@<TRIPOS>BOND
     1    38    37    1
     2   145   146    1
     3   156   155    1
     4   146   147    1
     5   146   149    1
     6    20    19    2
     7    19    18    1
     8   154   155   ar
     9   154   152   ar
    10   155   153   ar
    11   134   133    2
    12   147   148    2
    13    37    39    1
    14    37    36    1
    15   152   150   ar
    16   153   151   ar
    17   151   150   ar
    18   150   149    1
    19    32    33    1
    20    33    36    1
    21    33    34    1
    22   133   132    1
    23    18    21    1
    24    18    17    1
    25    68    67    1
    26    34    35    2
    27    34    40   am
    28   131   132    1
    29    21    23    1
    30    21    22    1
    31    55    54    1
    32    48    49    1
    33   132   135    1
    34    24    25    1
    35    61    62    1
    36    40    41    1
    37    65    62    1
    38    65    66    1
    39    62    63    1
    40    54    53    1
    41   135   136    1
    42    67    66    1
    43    42    41    1
    44    42    43    2
    45    25    26    1
    46    25    28    1
    47    49    52    1
    48    49    50    1
    49    53    52    1
    50    26    27    2
    51    41    44    1
    52    50    56   am
    53    50    51    2
    54    56    57    1
    55    63    64    2
    56    63    69   am
    57    30    28    1
    58    58    57    1
    59    58    59    2
    60   141   138   ar
    61   141   143   ar
    62   136   138   ar
    63   136   137   ar
    64    44    45    1
    65    28    29    1
    66    60    57    1
    67   138   140   ar
    68   129   130   ar
    69   129   127   ar
    70    69    70    1
    71   143   144   ar
    72    81    80    1
    73    81    82    1
    74    29    31    1
    75    45    46    1
    76    45    47    1
    77   137   139   ar
    78    12    11    2
    79    75    76    1
    80   130   128   ar
    81   127   125   ar
    82    11    10    1
    83    80    79    1
    84   232   231    2
    85   140   139   ar
    86   140   142   ar
    87   233   230    1
    88   233   234    1
    89    76    79    1
    90    76    77    1
    91    70    71    1
    92    70    73    1
    93   230   231    1
    94   230   229    1
    95   144   142   ar
    96   123   122    2
    97    71    72    2
    98     8     6    1
    99   128   126   ar
   100   125   126   ar
   101   125   124    1
   102    10    13    1
   103    10     9    1
   104    13    14    1
   105    73    74    1
   106   235   234   ar
   107   235   237   ar
   108   234   236   ar
   109   121   122    1
   110   121   124    1
   111   121   120    1
   112    77    78    2
   113    77    83   am
   114     4     3    2
   115    16    14    1
   116     5     6    1
   117     5     2    1
   118   246   245    1
   119   246   247    1
   120    83    84    1
   121     6     7    1
   122    14    15    1
   123   237   239   ar
   124   236   238   ar
   125   180   179    1
   126     3     2    1
   127     2     1    1
   128    85    84    1
   129    85    86    2
   130   181   179    1
   131   245   244    1
   132   110   109    1
   133    84    87    1
   134   179   178    1
   135   239   238   ar
   136    87    88    1
   137   108   107    2
   138   227   225    1
   139   188   190   ar
   140   188   187   ar
   141   240   241    1
   142   190   191   ar
   143   244   241    1
   144    89    88   ar
   145    89    91   ar
   146    88    90   ar
   147   187   186    1
   148   187   189   ar
   149   186   183    1
   150   191   189   ar
   151   178   175    1
   152   109   106    1
   153   107   106    1
   154   107   111   am
   155   185   184    2
   156    91    93   ar
   157   224   223    2
   158   241   242    1
   159   114   113    2
   160   228   226    1
   161   119   117   am
   162    90    92   ar
   163   106   105    1
   164   118   117    2
   165   184   183    1
   166   225   226    1
   167   225   222    1
   168   175   176    1
   169   175   174    1
   170   183   182    1
   171   117   116    1
   172   177   176    2
   173   113   112    1
   174    93    92   ar
   175   223   222    1
   176   112   111    1
   177   112   115    1
   178   242   243    2
   179   222   221    1
   180   219   218    1
   181   171   170    1
   182   171   172    1
   183   174   168   am
   184   162   161    1
   185   162   163    1
   186   161   158    1
   187   169   168    2
   188   218   220    1
   189   218   217    1
   190   115   116    1
   191   168   167    1
   192   170   167    1
   193   163   165   ar
   194   163   164   ar
   195   211   210    1
   196   172   173    1
   197   216   215    2
   198   256   254   ar
   199   256   258   ar
   200   102   100   ar
   201   102   104   ar
   202   217   214    1
   203   208   207    1
   204   208   209    1
   205    97    96    2
   206   214   215    1
   207   214   213    1
   208   167   166    1
   209   158   157    1
   210   158   159    1
   211   160   159    2
   212   100    99   ar
   213   198   200   ar
   214   198   197   ar
   215   254   253   ar
   216   200   201   ar
   217   258   257   ar
   218   207   206    1
   219   205   204    2
   220   104   103   ar
   221   210   209    2
   222   210   212    1
   223    95    96    1
   224    95    94    1
   225    95    98    1
   226   213   204   am
   227   204   203    1
   228    99    98    1
   229    99   101   ar
   230   253   252    1
   231   253   255   ar
   232   197   196    1
   233   197   199   ar
   234   201   199   ar
   235   257   255   ar
   236   206   203    1
   237   103   101   ar
   238   195   194    2
   239   196   193    1
   240   252   249    1
   241   248   249    1
   242   203   202    1
   243   194   193    1
   244   193   192    1
   245   249   250    1
   246   250   251    2
