@<TRIPOS>MOLECULE
tmp/1m17A00.pdb
 160 151 0 0 0
SMALL
GASTEIGER

@<TRIPOS>ATOM
      1  N         19.9480   -3.5300   46.5920 N.3    23  LEU23      -0.1231
      2  CA        19.2800   -2.4580   47.3240 C.3    23  LEU23       0.1693
      3  C         19.4360   -1.1200   46.5910 C.2    23  LEU23       0.2592
      4  O         18.6080   -0.2210   46.7490 O.2    23  LEU23      -0.2718
      5  CB        19.8360   -2.3490   48.7530 C.3    23  LEU23       0.0284
      6  CG        19.6230   -3.5380   49.7010 C.3    23  LEU23       0.0019
      7  CD1       20.3830   -3.3310   51.0010 C.3    23  LEU23       0.0001
      8  CD2       18.1590   -3.7390   49.9840 C.3    23  LEU23       0.0001
      9  N         20.4880   -0.9990   45.7830 N.am   24  GLY24      -0.1957
     10  CA        20.7220    0.2310   45.0500 C.3    24  GLY24       0.1869
     11  C         21.9600    0.1900   44.1820 C.2    24  GLY24       0.2309
     12  O         23.0250   -0.2040   44.6420 O.2    24  GLY24      -0.2863
     13  N         28.5580    4.6230   42.1220 N.3    28  PHE28      -0.1241
     14  CA        29.6450    4.2310   43.0150 C.3    28  PHE28       0.1605
     15  C         29.7970    2.7140   42.9610 C.2    28  PHE28       0.2264
     16  O         30.8240    2.1650   43.3550 O.2    28  PHE28      -0.2867
     17  CB        29.3380    4.6670   44.4560 C.3    28  PHE28       0.0534
     18  CG        28.0040    4.1760   44.9730 C.ar   28  PHE28      -0.0203
     19  CD1       27.8660    2.8830   45.4780 C.ar   28  PHE28      -0.0042
     20  CD2       26.8850    5.0060   44.9430 C.ar   28  PHE28      -0.0042
     21  CE1       26.6390    2.4200   45.9360 C.ar   28  PHE28      -0.0003
     22  CE2       25.6520    4.5540   45.3990 C.ar   28  PHE28      -0.0003
     23  CZ        25.5290    3.2580   45.8980 C.ar   28  PHE28      -0.0000
     24  N         24.9080   -1.9470   46.1370 N.3    31  VAL31      -0.1245
     25  CA        24.7830   -2.4090   47.5100 C.3    31  VAL31       0.1561
     26  C         23.7640   -3.5390   47.4820 C.2    31  VAL31       0.2260
     27  O         22.6300   -3.3570   47.0650 O.2    31  VAL31      -0.2867
     28  CB        24.2970   -1.2810   48.4680 C.3    31  VAL31       0.0252
     29  CG1       24.1070   -1.8200   49.8800 C.3    31  VAL31       0.0019
     30  CG2       25.3040   -0.1490   48.5050 C.3    31  VAL31       0.0019
     31  N         24.6700   -6.5770   54.4370 N.3    48  ALA48      -0.1245
     32  CA        24.6180   -5.7150   53.2680 C.3    48  ALA48       0.1562
     33  C         26.0020   -5.8630   52.6450 C.2    48  ALA48       0.2260
     34  O         27.0240   -5.8580   53.3490 O.2    48  ALA48      -0.2867
     35  CB        24.3710   -4.2630   53.6580 C.3    48  ALA48       0.0290
     36  N         28.5810   -4.3400   49.7440 N.3    50  LYS50      -0.1245
     37  CA        28.8810   -3.2130   48.8640 C.3    50  LYS50       0.1561
     38  C         30.1220   -3.4690   47.9840 C.2    50  LYS50       0.2260
     39  O         31.1950   -3.7870   48.4970 O.2    50  LYS50      -0.2867
     40  CB        29.0790   -1.9660   49.7200 C.3    50  LYS50       0.0271
     41  CG        29.4060   -0.6970   48.9660 C.3    50  LYS50       0.0035
     42  CD        29.7250    0.4010   49.9600 C.3    50  LYS50       0.0206
     43  CE        29.8710    1.7420   49.2910 C.3    50  LYS50       0.1093
     44  NZ        30.1220    2.7910   50.3140 N.3    50  LYS50      -0.1314
     45  N         38.1420    2.6550   53.0130 N.3    67  GLU67      -0.1245
     46  CA        36.8800    2.6490   53.7260 C.3    67  GLU67       0.1567
     47  C         36.7750    1.4360   54.6410 C.2    67  GLU67       0.2260
     48  O         36.1910    1.5240   55.7320 O.2    67  GLU67      -0.2867
     49  CB        35.7260    2.6790   52.7360 C.3    67  GLU67       0.0388
     50  CG        34.3460    2.6980   53.3610 C.3    67  GLU67       0.1160
     51  CD        33.2350    2.8630   52.3350 C.2    67  GLU67       0.3649
     52  OE1       33.5410    3.2490   51.1880 O.co2  67  GLU67      -0.2457
     53  OE2       32.0530    2.6200   52.6720 O.co2  67  GLU67      -0.2457
     54  N         36.1830    1.4720   58.7710 N.3    71  MET71      -0.1245
     55  CA        35.0580    0.7300   59.3380 C.3    71  MET71       0.1570
     56  C         35.4660   -0.4110   60.2510 C.2    71  MET71       0.2261
     57  O         34.7340   -0.7680   61.1700 O.2    71  MET71      -0.2867
     58  CB        34.1330    0.1920   58.2660 C.3    71  MET71       0.0387
     59  CG        33.3970    1.2290   57.4790 C.3    71  MET71       0.0595
     60  SD        32.2440    0.3620   56.4430 S.3    71  MET71      -0.1393
     61  CE        31.0800   -0.1140   57.6310 C.3    71  MET71       0.0692
     62  N         32.6490   -5.0430   50.5310 N.3    93  LEU93      -0.1245
     63  CA        32.5720   -4.7210   51.9520 C.3    93  LEU93       0.1561
     64  C         31.3030   -5.3970   52.4730 C.2    93  LEU93       0.2260
     65  O         30.2840   -5.3950   51.7820 O.2    93  LEU93      -0.2867
     66  CB        32.4600   -3.2240   52.1580 C.3    93  LEU93       0.0270
     67  CG        33.6680   -2.3580   51.8270 C.3    93  LEU93       0.0019
     68  CD1       33.2740   -0.8940   51.8410 C.3    93  LEU93       0.0001
     69  CD2       34.7450   -2.6000   52.8340 C.3    93  LEU93       0.0001
     70  N         28.6900   -5.6370   55.7890 N.3    95  THR95      -0.1203
     71  CA        28.2970   -5.0440   57.0530 C.3    95  THR95       0.1994
     72  C         26.9470   -5.5410   57.4520 C.2    95  THR95       0.2618
     73  O         26.3110   -6.2420   56.6920 O.2    95  THR95      -0.2717
     74  CB        28.2030   -3.5070   57.0030 C.3    95  THR95       0.1784
     75  OG1       27.4030   -3.1090   55.8890 O.3    95  THR95      -0.2211
     76  CG2       29.5590   -2.8840   56.9100 C.3    95  THR95       0.0376
     77  N         26.5250   -5.1650   58.6590 N.am   96  GLN96      -0.1965
     78  CA        25.2240   -5.5350   59.1810 C.3    96  GLN96       0.1733
     79  C         24.1270   -4.8310   58.3840 C.2    96  GLN96       0.2616
     80  O         24.2530   -3.6570   58.0170 O.2    96  GLN96      -0.2715
     81  CB        25.1050   -5.1210   60.6390 C.3    96  GLN96       0.0408
     82  CG        23.6840   -5.0800   61.1680 C.3    96  GLN96       0.0908
     83  CD        23.6010   -4.5600   62.5950 C.2    96  GLN96       0.2608
     84  OE1       24.1340   -3.4950   62.9220 O.2    96  GLN96      -0.2717
     85  NE2       22.9200   -5.3030   63.4460 N.am   96  GLN96      -0.0878
     86  N         23.0620   -5.5740   58.1000 N.am   97  LEU97      -0.1963
     87  CA        21.9300   -5.0350   57.3780 C.3    97  LEU97       0.1728
     88  C         21.1270   -4.0650   58.2590 C.2    97  LEU97       0.2616
     89  O         20.7770   -4.3740   59.4010 O.2    97  LEU97      -0.2715
     90  CB        21.0190   -6.1720   56.9320 C.3    97  LEU97       0.0311
     91  CG        19.8130   -5.7420   56.1100 C.3    97  LEU97       0.0022
     92  CD1       20.3180   -5.1880   54.8060 C.3    97  LEU97       0.0001
     93  CD2       18.8620   -6.9030   55.8880 C.3    97  LEU97       0.0001
     94  N         20.8980   -2.8660   57.7440 N.am   98  MET98      -0.1964
     95  CA        20.0910   -1.8720   58.4360 C.3    98  MET98       0.1722
     96  C         18.7830   -1.8730   57.6050 C.2    98  MET98       0.2458
     97  O         18.5650   -1.0270   56.7480 O.2    98  MET98      -0.2730
     98  CB        20.8180   -0.5330   58.4110 C.3    98  MET98       0.0427
     99  CG        22.1970   -0.5790   59.0470 C.3    98  MET98       0.0599
    100  SD        22.1960   -1.1630   60.7740 S.3    98  MET98      -0.1393
    101  CE        21.9370    0.3700   61.5880 C.3    98  MET98       0.0692
    102  N         17.8640   -2.7950   57.9290 N.am   99  PRO99      -0.2716
    103  CA        16.5700   -3.0270   57.2840 C.3    99  PRO99       0.1536
    104  C         15.7370   -1.8360   56.8470 C.2    99  PRO99       0.2599
    105  O         15.1030   -1.8880   55.7980 O.2    99  PRO99      -0.2715
    106  CB        15.8050   -3.8640   58.3240 C.3    99  PRO99       0.0310
    107  CG        16.8700   -4.4710   59.1710 C.3    99  PRO99       0.0237
    108  CD        17.8430   -3.3490   59.2950 C.3    99  PRO99       0.0939
    109  N         15.7180   -0.7800   57.6500 N.am  100  PHE100     -0.1960
    110  CA        14.8960    0.3770   57.3430 C.3   100  PHE100      0.1771
    111  C         15.5640    1.4550   56.4990 C.2   100  PHE100      0.2620
    112  O         15.0180    2.5600   56.3370 O.2   100  PHE100     -0.2715
    113  CB        14.3300    0.9380   58.6430 C.3   100  PHE100      0.0574
    114  CG        13.4230   -0.0220   59.3500 C.ar  100  PHE100     -0.0200
    115  CD1       13.9320   -0.9150   60.2840 C.ar  100  PHE100     -0.0042
    116  CD2       12.0590   -0.0690   59.0470 C.ar  100  PHE100     -0.0042
    117  CE1       13.1010   -1.8520   60.9130 C.ar  100  PHE100     -0.0003
    118  CE2       11.2230   -0.9930   59.6630 C.ar  100  PHE100     -0.0003
    119  CZ        11.7470   -1.8880   60.6010 C.ar  100  PHE100     -0.0000
    120  N         16.7410    1.1200   55.9640 N.am  101  GLY101     -0.1940
    121  CA        17.4890    2.0330   55.1190 C.3   101  GLY101      0.2014
    122  C         17.9610    3.3150   55.7680 C.2   101  GLY101      0.2639
    123  O         17.9860    3.4120   56.9920 O.2   101  GLY101     -0.2714
    124  N         18.3160    4.3050   54.9470 N.am  102  CYS102     -0.1967
    125  CA        18.8100    5.5870   55.4430 C.3   102  CYS102      0.1712
    126  C         17.7160    6.4530   56.0690 C.2   102  CYS102      0.2296
    127  O         16.5720    6.4470   55.6160 O.2   102  CYS102     -0.2864
    128  CB        19.5660    6.3580   54.3500 C.3   102  CYS102      0.0983
    129  SG        18.5420    7.1500   53.1210 S.3   102  CYS102     -0.0798
    130  N         15.4190    9.2320   53.8250 N.3   105  ASP105     -0.1239
    131  CA        14.2240    8.6980   53.1910 C.3   105  ASP105      0.1674
    132  C         13.2470    8.1650   54.1950 C.2   105  ASP105      0.2266
    133  O         12.0450    8.1530   53.9360 O.2   105  ASP105     -0.2867
    134  CB        14.5440    7.6210   52.1570 C.3   105  ASP105      0.1410
    135  CG        15.1930    8.1920   50.9190 C.2   105  ASP105      0.3668
    136  OD1       16.2280    7.6340   50.4890 O.co2 105  ASP105     -0.2456
    137  OD2       14.6760    9.2090   50.3910 O.co2 105  ASP105     -0.2456
    138  N         21.9420    5.1940   59.0790 N.3   149  LEU149     -0.1245
    139  CA        21.0980    4.0560   58.7480 C.3   149  LEU149      0.1561
    140  C         20.1880    3.7130   59.9050 C.2   149  LEU149      0.2260
    141  O         20.4850    4.0470   61.0490 O.2   149  LEU149     -0.2867
    142  CB        21.9590    2.8580   58.3090 C.3   149  LEU149      0.0270
    143  CG        22.7930    3.1290   57.0350 C.3   149  LEU149      0.0019
    144  CD1       23.6540    1.9480   56.6760 C.3   149  LEU149      0.0001
    145  CD2       21.8870    3.4630   55.8690 C.3   149  LEU149      0.0001
    146  N         27.1870    5.9760   59.1280 N.3   159  THR159     -0.1203
    147  CA        27.8620    5.1430   58.1570 C.3   159  THR159      0.1994
    148  C         28.5570    5.9940   57.0990 C.2   159  THR159      0.2617
    149  O         28.7420    7.2100   57.2930 O.2   159  THR159     -0.2717
    150  CB        26.8570    4.1490   57.5200 C.3   159  THR159      0.1784
    151  OG1       27.5570    3.0720   56.8870 O.3   159  THR159     -0.2211
    152  CG2       25.9740    4.8510   56.5290 C.3   159  THR159      0.0376
    153  N         28.9520    5.3390   56.0030 N.am  160  ASP160     -0.1973
    154  CA        29.6430    5.9540   54.8680 C.3   160  ASP160      0.1709
    155  C         30.9010    6.7260   55.2280 C.2   160  ASP160      0.2293
    156  O         30.8930    7.9460   55.2820 O.2   160  ASP160     -0.2864
    157  CB        28.6830    6.8120   54.0400 C.3   160  ASP160      0.1436
    158  CG        27.9430    6.0020   52.9790 C.2   160  ASP160      0.3671
    159  OD1       28.4890    5.8490   51.8660 O.co2 160  ASP160     -0.2456
    160  OD2       26.8270    5.5100   53.2470 O.co2 160  ASP160     -0.2456
@<TRIPOS>BOND
     1    13    14    1
     2    15    14    1
     3    15    16    2
     4    14    17    1
     5    11    12    2
     6    11    10    1
     7    17    18    1
     8    20    18   ar
     9    20    22   ar
    10    18    19   ar
    11    10     9    1
    12    22    23   ar
    13    19    21   ar
    14     9     3   am
    15    23    21   ar
    16    24    25    1
    17     3     4    2
    18     3     2    1
    19     1     2    1
    20    27    26    2
    21     2     5    1
    22    26    25    1
    23    25    28    1
    24    38    39    2
    25    38    37    1
    26    28    30    1
    27    28    29    1
    28     5     6    1
    29    37    40    1
    30    37    36    1
    31    41    40    1
    32    41    42    1
    33    43    42    1
    34    43    44    1
    35     6     8    1
    36     6     7    1
    37   137   135   ar
    38   136   135   ar
    39    62    63    1
    40   135   134    1
    41    52    51   ar
    42    65    64    2
    43    67    68    1
    44    67    66    1
    45    67    69    1
    46   159   158   ar
    47    63    66    1
    48    63    64    1
    49   134   131    1
    50    51    53   ar
    51    51    50    1
    52    33    32    1
    53    33    34    2
    54    49    50    1
    55    49    46    1
    56   158   160   ar
    57   158   157    1
    58    45    46    1
    59   129   128    1
    60   131   130    1
    61   131   132    1
    62    32    35    1
    63    32    31    1
    64    46    47    1
    65   133   132    2
    66   157   154    1
    67   128   125    1
    68    47    48    2
    69    92    91    1
    70   154   155    1
    71   154   153    1
    72   124   125    1
    73   124   122   am
    74   121   122    1
    75   121   120    1
    76   155   156    2
    77   125   126    1
    78   127   126    2
    79   122   123    2
    80    70    71    1
    81   105   104    2
    82   145   143    1
    83    93    91    1
    84    75    74    1
    85   120   111   am
    86   153   148   am
    87    91    90    1
    88   112   111    2
    89    60    59    1
    90    60    61    1
    91   111   110    1
    92   152   150    1
    93   144   143    1
    94    73    72    2
    95    97    96    2
    96   104   103    1
    97   104   109   am
    98   151   150    1
    99    76    74    1
   100    90    87    1
   101    74    71    1
   102   143   142    1
   103    71    72    1
   104   148   149    2
   105   148   147    1
   106   103   102    1
   107   103   106    1
   108   110   109    1
   109   110   113    1
   110    87    86    1
   111    87    88    1
   112    72    77   am
   113    59    58    1
   114   150   147    1
   115    96   102   am
   116    96    95    1
   117    94    88   am
   118    94    95    1
   119   102   108    1
   120    80    79    2
   121    86    79   am
   122   147   146    1
   123    88    89    2
   124    58    55    1
   125   142   139    1
   126   106   107    1
   127    79    78    1
   128    98    95    1
   129    98    99    1
   130   113   114    1
   131    77    78    1
   132   139   138    1
   133   139   140    1
   134    54    55    1
   135    99   100    1
   136   116   114   ar
   137   116   118   ar
   138   107   108    1
   139    78    81    1
   140    55    56    1
   141   114   115   ar
   142   118   119   ar
   143   140   141    2
   144    56    57    2
   145   115   117   ar
   146   119   117   ar
   147    81    82    1
   148   100   101    1
   149    82    83    1
   150    83    84    2
   151    83    85   am
