@<TRIPOS>MOLECULE
tmp/1m1bA00.pdb
 127 119 0 0 0
SMALL
GASTEIGER

@<TRIPOS>ATOM
      1  N         31.0320   68.7210   63.2310 N.3    40  TRP40      -0.1241
      2  CA        30.6010   69.2850   64.5180 C.3    40  TRP40       0.1605
      3  C         31.8200   69.8760   65.2290 C.2    40  TRP40       0.2264
      4  O         32.7750   69.1570   65.5720 O.2    40  TRP40      -0.2867
      5  CB        29.9320   68.2120   65.4040 C.3    40  TRP40       0.0550
      6  CG        29.5710   68.6300   66.8300 C.ar   40  TRP40       0.0003
      7  CD1       30.1080   68.1270   67.9880 C.ar   40  TRP40       0.0946
      8  CD2       28.5740   69.5880   67.2470 C.ar   40  TRP40       0.0152
      9  NE1       29.5130   68.7080   69.0860 N.ar   40  TRP40      -0.2442
     10  CE2       28.5710   69.6050   68.6590 C.ar   40  TRP40       0.0810
     11  CE3       27.6920   70.4290   66.5660 C.ar   40  TRP40       0.0012
     12  CZ2       27.7280   70.4270   69.3940 C.ar   40  TRP40       0.0191
     13  CZ3       26.8510   71.2510   67.2970 C.ar   40  TRP40       0.0001
     14  CH2       26.8780   71.2430   68.7030 C.ar   40  TRP40       0.0015
     15  N         32.8390   70.6810   68.1830 N.3    42  SER42      -0.1202
     16  CA        32.5890   70.4350   69.6130 C.3    42  SER42       0.2020
     17  C         33.1810   71.4830   70.5530 C.2    42  SER42       0.2619
     18  O         34.3900   71.7320   70.5480 O.2    42  SER42      -0.2717
     19  CB        33.1190   69.0500   69.9940 C.3    42  SER42       0.2103
     20  OG        33.2040   68.8680   71.3980 O.3    42  SER42      -0.2182
     21  N         32.3280   72.0990   71.3650 N.am   43  GLY43      -0.1942
     22  CA        32.8230   73.0900   72.2980 C.3    43  GLY43       0.2014
     23  C         33.8700   72.4340   73.1880 C.2    43  GLY43       0.2638
     24  O         34.9400   72.9830   73.4250 O.2    43  GLY43      -0.2714
     25  N         33.5670   71.2340   73.6650 N.am   44  LEU44      -0.1977
     26  CA        34.4770   70.5060   74.5250 C.3    44  LEU44       0.1596
     27  C         35.7550   70.0380   73.8290 C.2    44  LEU44       0.2287
     28  O         36.8280   70.1370   74.4010 O.2    44  LEU44      -0.2864
     29  CB        33.7660   69.2910   75.1180 C.3    44  LEU44       0.0297
     30  CG        34.6580   68.1750   75.6770 C.3    44  LEU44       0.0022
     31  CD1       35.4720   68.6890   76.8340 C.3    44  LEU44       0.0001
     32  CD2       33.8030   67.0270   76.1190 C.3    44  LEU44       0.0001
     33  N         35.9850   73.1070   79.2010 N.3    54  ASP54      -0.1239
     34  CA        34.8650   73.4910   78.3680 C.3    54  ASP54       0.1674
     35  C         33.9680   74.4100   79.1870 C.2    54  ASP54       0.2266
     36  O         32.8200   74.1000   79.4720 O.2    54  ASP54      -0.2867
     37  CB        34.1460   72.2290   77.8930 C.3    54  ASP54       0.1410
     38  CG        32.8580   72.5200   77.1870 C.2    54  ASP54       0.3668
     39  OD1       32.7610   73.5540   76.5080 O.co2  54  ASP54      -0.2456
     40  OD2       31.9330   71.6990   77.3080 O.co2  54  ASP54      -0.2456
     41  N         29.6550   74.3980   67.9380 N.3    81  ASP81      -0.1239
     42  CA        28.9900   74.3510   69.2360 C.3    81  ASP81       0.1674
     43  C         29.4600   75.6550   69.8610 C.2    81  ASP81       0.2266
     44  O         30.5670   75.7410   70.3860 O.2    81  ASP81      -0.2867
     45  CB        29.4810   73.1840   70.0780 C.3    81  ASP81       0.1410
     46  CG        29.1410   73.3620   71.5390 C.2    81  ASP81       0.3668
     47  OD1       28.3080   74.2440   71.8530 O.co2  81  ASP81      -0.2456
     48  OD2       29.6990   72.6320   72.3780 O.co2  81  ASP81      -0.2456
     49  N         29.3600   78.7220   80.6760 N.3   116  LYS116     -0.1245
     50  CA        28.6590   77.4560   80.8370 C.3   116  LYS116      0.1561
     51  C         29.5100   76.3020   81.3980 C.2   116  LYS116      0.2260
     52  O         30.7260   76.4230   81.5520 O.2   116  LYS116     -0.2867
     53  CB        28.0120   77.0610   79.4890 C.3   116  LYS116      0.0271
     54  CG        28.9350   77.1680   78.2510 C.3   116  LYS116      0.0035
     55  CD        30.1220   76.1980   78.3020 C.3   116  LYS116      0.0206
     56  CE        29.6630   74.7580   78.2570 C.3   116  LYS116      0.1093
     57  NZ        29.1210   74.3770   76.9290 N.3   116  LYS116     -0.1314
     58  N         30.0690   71.9600   81.0180 N.3   118  ASN118     -0.1225
     59  CA        29.7490   70.8830   80.0840 C.3   118  ASN118      0.1785
     60  C         28.5040   70.1570   80.5800 C.2   118  ASN118      0.2598
     61  O         28.2960   70.0480   81.7810 O.2   118  ASN118     -0.2718
     62  CB        30.9350   69.9240   79.9480 C.3   118  ASN118      0.1169
     63  CG        30.7300   68.8910   78.8540 C.2   118  ASN118      0.2627
     64  OD1       29.9640   67.9460   79.0200 O.2   118  ASN118     -0.2716
     65  ND2       31.4080   69.0730   77.7300 N.am  118  ASN118     -0.0877
     66  N         27.6780   69.6820   79.6500 N.am  119  SER119     -0.1938
     67  CA        26.4170   68.9920   79.9650 C.3   119  SER119      0.2055
     68  C         26.5540   67.5600   80.4890 C.2   119  SER119      0.2642
     69  O         25.6220   67.0160   81.0940 O.2   119  SER119     -0.2714
     70  CB        25.5290   68.9540   78.7170 C.3   119  SER119      0.2130
     71  OG        25.3610   70.2400   78.1540 O.3   119  SER119     -0.2179
     72  N         27.7140   66.9500   80.2480 N.am  120  LEU120     -0.1977
     73  CA        27.9520   65.5690   80.6570 C.3   120  LEU120      0.1596
     74  C         28.3400   65.3870   82.1230 C.2   120  LEU120      0.2287
     75  O         28.5900   64.2640   82.5700 O.2   120  LEU120     -0.2864
     76  CB        29.0070   64.9490   79.7360 C.3   120  LEU120      0.0297
     77  CG        28.6120   65.1000   78.2570 C.3   120  LEU120      0.0022
     78  CD1       29.6030   64.3650   77.3700 C.3   120  LEU120      0.0001
     79  CD2       27.1880   64.5700   78.0450 C.3   120  LEU120      0.0001
     80  N         19.6740   74.9830   71.4680 N.3   155  ARG155     -0.1245
     81  CA        19.8400   73.8050   72.3060 C.3   155  ARG155      0.1563
     82  C         19.1290   73.9360   73.6530 C.2   155  ARG155      0.2260
     83  O         19.4020   74.8560   74.4290 O.2   155  ARG155     -0.2867
     84  CB        21.3350   73.5690   72.4810 C.3   155  ARG155      0.0307
     85  CG        21.7670   72.5040   73.4380 C.3   155  ARG155      0.0489
     86  CD        23.1420   72.0970   72.9850 C.3   155  ARG155      0.2205
     87  NE        23.9150   71.3750   73.9780 N.pl3 155  ARG155     -0.0865
     88  CZ        25.2270   71.2220   73.9000 C.cat 155  ARG155      0.5346
     89  NH1       25.8750   71.7480   72.8700 N.pl3 155  ARG155      0.1354
     90  NH2       25.8780   70.5640   74.8530 N.pl3 155  ARG155      0.1354
     91  N         18.9660   67.8800   74.1620 N.3   186  HIS186     -0.1241
     92  CA        20.0000   67.0950   74.7830 C.3   186  HIS186      0.1621
     93  C         19.5080   66.3610   76.0240 C.2   186  HIS186      0.2264
     94  O         18.4510   66.6580   76.5680 O.2   186  HIS186     -0.2867
     95  CB        21.1770   67.9720   75.1540 C.3   186  HIS186      0.0745
     96  CG        22.4780   67.2420   75.1340 C.ar  186  HIS186      0.0817
     97  ND1       22.5830   65.9070   74.8080 N.ar  186  HIS186     -0.2268
     98  CD2       23.7280   67.6530   75.4510 C.ar  186  HIS186      0.1154
     99  CE1       23.8420   65.5260   74.9290 C.ar  186  HIS186      0.1986
    100  NE2       24.5580   66.5660   75.3180 N.ar  186  HIS186     -0.2212
    101  N         22.4400   64.5240   70.3550 N.3   211  VAL211     -0.1245
    102  CA        23.8160   64.1410   70.6670 C.3   211  VAL211      0.1561
    103  C         23.7470   62.8630   71.5020 C.2   211  VAL211      0.2260
    104  O         23.6770   62.9060   72.7380 O.2   211  VAL211     -0.2867
    105  CB        24.5120   65.2490   71.4710 C.3   211  VAL211      0.0252
    106  CG1       25.8280   64.7580   72.0190 C.3   211  VAL211      0.0019
    107  CG2       24.7330   66.4570   70.5860 C.3   211  VAL211      0.0019
    108  N         25.7630   60.7090   72.7050 N.3   213  THR213     -0.1218
    109  CA        26.9400   60.3040   73.4810 C.3   213  THR213      0.1862
    110  C         26.7200   59.3560   74.6670 C.2   213  THR213      0.2287
    111  O         27.4260   58.3530   74.8010 O.2   213  THR213     -0.2866
    112  CB        27.7030   61.5430   74.0290 C.3   213  THR213      0.1770
    113  OG1       27.8870   62.5000   72.9740 O.3   213  THR213     -0.2211
    114  CG2       29.0770   61.1200   74.5910 C.3   213  THR213      0.0375
    115  N         29.5580   63.6250   68.7110 N.3   234  ALA234     -0.1231
    116  CA        30.1840   64.7240   69.4300 C.3   234  ALA234      0.1694
    117  C         31.6480   64.8220   69.8560 C.2   234  ALA234      0.2592
    118  O         32.1480   65.9330   69.9970 O.2   234  ALA234     -0.2718
    119  CB        29.2860   65.0590   70.6580 C.3   234  ALA234      0.0304
    120  N         32.3610   63.7220   70.0450 N.am  235  ASN235     -0.1974
    121  CA        33.7200   63.8770   70.5520 C.3   235  ASN235      0.1688
    122  C         34.6290   62.6900   70.4010 C.2   235  ASN235      0.2292
    123  O         35.6050   62.5840   71.1480 O.2   235  ASN235     -0.2864
    124  CB        33.6260   64.1470   72.0320 C.3   235  ASN235      0.1181
    125  CG        32.7340   63.1300   72.7300 C.2   235  ASN235      0.2629
    126  OD1       32.7830   61.9480   72.4160 O.2   235  ASN235     -0.2716
    127  ND2       31.9210   63.5860   73.6730 N.am  235  ASN235     -0.0877
@<TRIPOS>BOND
     1     1     2    1
     2     2     3    1
     3     2     5    1
     4     3     4    2
     5     5     6    1
     6    11     8   ar
     7    11    13   ar
     8     6     8   ar
     9     6     7   ar
    10     8    10   ar
    11    13    14   ar
    12    41    42    1
    13     7     9   ar
    14    15    16    1
    15    10     9   ar
    16    10    12   ar
    17    14    12   ar
    18   115   116    1
    19    42    43    1
    20    42    45    1
    21   116   117    1
    22   116   119    1
    23    16    19    1
    24    16    17    1
    25   117   118    2
    26   117   120   am
    27    43    44    2
    28    19    20    1
    29   120   121    1
    30    45    46    1
    31   101   102    1
    32   122   121    1
    33   122   123    2
    34    18    17    2
    35   121   124    1
    36    17    21   am
    37   107   105    1
    38   102   105    1
    39   102   103    1
    40    21    22    1
    41    80    81    1
    42   105   106    1
    43   103   104    2
    44    46    47   ar
    45    46    48   ar
    46   124   125    1
    47    22    23    1
    48    81    84    1
    49    81    82    1
    50   126   125    2
    51    84    85    1
    52   108   109    1
    53   125   127   am
    54    89    88    1
    55   113   112    1
    56    86    85    1
    57    86    87    1
    58    23    24    2
    59    23    25   am
    60   109   112    1
    61   109   110    1
    62    82    83    2
    63    25    26    1
    64    27    28    2
    65    27    26    1
    66    88    87    2
    67    88    90    1
    68   112   114    1
    69    91    92    1
    70    26    29    1
    71   110   111    2
    72    92    95    1
    73    92    93    1
    74    97    99   ar
    75    97    96   ar
    76    99   100   ar
    77    29    30    1
    78    96    95    1
    79    96    98   ar
    80   100    98   ar
    81    30    32    1
    82    30    31    1
    83    93    94    2
    84    39    38   ar
    85    57    56    1
    86    38    40   ar
    87    38    37    1
    88    78    77    1
    89    65    63   am
    90    37    34    1
    91    79    77    1
    92    71    70    1
    93    54    55    1
    94    54    53    1
    95    77    76    1
    96    56    55    1
    97    34    35    1
    98    34    33    1
    99    70    67    1
   100    63    64    2
   101    63    62    1
   102    35    36    2
   103    53    50    1
   104    66    67    1
   105    66    60   am
   106    76    73    1
   107    62    59    1
   108    67    68    1
   109    59    60    1
   110    59    58    1
   111    72    68   am
   112    72    73    1
   113    68    69    2
   114    60    61    2
   115    73    74    1
   116    49    50    1
   117    50    51    1
   118    51    52    2
   119    74    75    2
