@<TRIPOS>MOLECULE
tmp/1m1jB00.pdb
 127 121 0 0 0
SMALL
GASTEIGER

@<TRIPOS>ATOM
      1  N        -34.0200  -14.6930  -15.3600 N.3   302  LEU302     -0.1245
      2  CA       -34.3320  -14.2780  -16.7190 C.3   302  LEU302      0.1561
      3  C        -33.9270  -15.4080  -17.6510 C.2   302  LEU302      0.2260
      4  O        -33.1830  -16.3010  -17.2520 O.2   302  LEU302     -0.2867
      5  CB       -33.5530  -13.0120  -17.0900 C.3   302  LEU302      0.0270
      6  CG       -33.8060  -11.7640  -16.2420 C.3   302  LEU302      0.0019
      7  CD1      -33.1960  -10.5420  -16.9380 C.3   302  LEU302      0.0001
      8  CD2      -35.3020  -11.5690  -16.0530 C.3   302  LEU302      0.0001
      9  N        -32.1670  -14.3180  -24.3500 N.3   305  GLU305     -0.1231
     10  CA       -31.8230  -12.9420  -24.6640 C.3   305  GLU305      0.1699
     11  C        -31.8140  -12.0230  -23.4320 C.2   305  GLU305      0.2592
     12  O        -30.9020  -11.2080  -23.2630 O.2   305  GLU305     -0.2718
     13  CB       -32.8130  -12.4310  -25.7090 C.3   305  GLU305      0.0402
     14  CG       -32.4650  -11.1040  -26.3280 C.3   305  GLU305      0.1161
     15  CD       -33.4550  -10.7100  -27.4010 C.2   305  GLU305      0.3649
     16  OE1      -34.6620  -10.6010  -27.0830 O.co2 305  GLU305     -0.2457
     17  OE2      -33.0240  -10.5170  -28.5590 O.co2 305  GLU305     -0.2457
     18  N        -32.8240  -12.1470  -22.5740 N.am  306  ASN306     -0.1974
     19  CA       -32.8690  -11.3150  -21.3840 C.3   306  ASN306      0.1688
     20  C        -31.6380  -11.5550  -20.5180 C.2   306  ASN306      0.2292
     21  O        -30.8600  -10.6390  -20.2470 O.2   306  ASN306     -0.2864
     22  CB       -34.0990  -11.6140  -20.5400 C.3   306  ASN306      0.1181
     23  CG       -35.3910  -11.3500  -21.2670 C.2   306  ASN306      0.2629
     24  OD1      -35.4440  -10.5860  -22.2340 O.2   306  ASN306     -0.2716
     25  ND2      -36.4600  -11.9740  -20.7860 N.am  306  ASN306     -0.0877
     26  N        -28.3200  -10.3260  -21.7290 N.3   309  MET309     -0.1230
     27  CA       -28.0660   -8.8970  -21.6970 C.3   309  MET309      0.1702
     28  C        -27.7530   -8.3840  -20.2790 C.2   309  MET309      0.2593
     29  O        -27.4440   -7.2020  -20.0930 O.2   309  MET309     -0.2718
     30  CB       -29.2380   -8.1370  -22.3420 C.3   309  MET309      0.0401
     31  CG       -30.5780   -8.2900  -21.6540 C.3   309  MET309      0.0596
     32  SD       -31.8770   -7.3080  -22.4440 S.3   309  MET309     -0.1393
     33  CE       -31.5920   -7.7080  -24.1570 C.3   309  MET309      0.0692
     34  N        -27.8230   -9.2680  -19.2830 N.am  310  THR310     -0.1953
     35  CA       -27.4780   -8.8720  -17.9250 C.3   310  THR310      0.1897
     36  C        -26.1890   -9.5870  -17.5290 C.2   310  THR310      0.2313
     37  O        -26.0570  -10.0630  -16.4070 O.2   310  THR310     -0.2863
     38  CB       -28.5750   -9.2040  -16.8940 C.3   310  THR310      0.1794
     39  OG1      -28.7710  -10.6180  -16.8170 O.3   310  THR310     -0.2208
     40  CG2      -29.8730   -8.5290  -17.2690 C.3   310  THR310      0.0378
     41  N        -26.4670   -1.0490  -24.2800 N.3   327  TRP327     -0.1241
     42  CA       -27.8110   -0.6260  -24.6560 C.3   327  TRP327      0.1605
     43  C        -27.6790    0.3650  -25.7990 C.2   327  TRP327      0.2264
     44  O        -27.4570    1.5560  -25.5650 O.2   327  TRP327     -0.2867
     45  CB       -28.5020    0.0580  -23.4800 C.3   327  TRP327      0.0550
     46  CG       -29.9750    0.2050  -23.6480 C.ar  327  TRP327      0.0003
     47  CD1      -30.7230   -0.2030  -24.7160 C.ar  327  TRP327      0.0946
     48  CD2      -30.9060    0.7210  -22.6810 C.ar  327  TRP327      0.0152
     49  NE1      -32.0630    0.0170  -24.4700 N.ar  327  TRP327     -0.2442
     50  CE2      -32.2030    0.5820  -23.2310 C.ar  327  TRP327      0.0810
     51  CE3      -30.7700    1.2780  -21.4020 C.ar  327  TRP327      0.0012
     52  CZ2      -33.3610    0.9790  -22.5440 C.ar  327  TRP327      0.0191
     53  CZ3      -31.9270    1.6740  -20.7090 C.ar  327  TRP327      0.0001
     54  CH2      -33.2040    1.5210  -21.2860 C.ar  327  TRP327      0.0015
     55  N        -29.9760    5.3800  -15.4610 N.3   339  GLU339     -0.1231
     56  CA       -31.1380    4.7610  -14.8580 C.3   339  GLU339      0.1699
     57  C        -30.8390    3.9790  -13.6050 C.2   339  GLU339      0.2592
     58  O        -31.6500    3.9680  -12.6810 O.2   339  GLU339     -0.2718
     59  CB       -31.8480    3.8550  -15.8580 C.3   339  GLU339      0.0402
     60  CG       -32.1810    4.5130  -17.1860 C.3   339  GLU339      0.1161
     61  CD       -33.2970    3.7910  -17.9320 C.2   339  GLU339      0.3649
     62  OE1      -33.3030    2.5410  -17.9500 O.co2 339  GLU339     -0.2457
     63  OE2      -34.1650    4.4790  -18.5060 O.co2 339  GLU339     -0.2457
     64  N        -29.6750    3.3430  -13.5410 N.am  340  ASP340     -0.1974
     65  CA       -29.3830    2.5420  -12.3580 C.3   340  ASP340      0.1709
     66  C        -28.4820    3.1430  -11.2810 C.2   340  ASP340      0.2293
     67  O        -27.9360    2.4270  -10.4490 O.2   340  ASP340     -0.2864
     68  CB       -28.8830    1.1620  -12.7930 C.3   340  ASP340      0.1436
     69  CG       -29.8880    0.4450  -13.6880 C.2   340  ASP340      0.3671
     70  OD1      -31.0810    0.3930  -13.3260 O.co2 340  ASP340     -0.2456
     71  OD2      -29.4890   -0.0610  -14.7530 O.co2 340  ASP340     -0.2456
     72  N        -26.7370   -4.6240  -20.9910 N.3   348  ARG348     -0.1231
     73  CA       -28.0810   -4.1920  -21.3680 C.3   348  ARG348      0.1694
     74  C        -28.6470   -4.0040  -19.9860 C.2   348  ARG348      0.2592
     75  O        -29.7580   -4.4420  -19.6410 O.2   348  ARG348     -0.2718
     76  CB       -28.8540   -5.2670  -22.0800 C.3   348  ARG348      0.0321
     77  CG       -30.1830   -4.7880  -22.5880 C.3   348  ARG348      0.0489
     78  CD       -30.0280   -4.0430  -23.8920 C.3   348  ARG348      0.2205
     79  NE       -31.3200   -3.9180  -24.5510 N.pl3 348  ARG348     -0.0865
     80  CZ       -31.4930   -3.4350  -25.7720 C.cat 348  ARG348      0.5346
     81  NH1      -30.4480   -3.0250  -26.4830 N.pl3 348  ARG348      0.1354
     82  NH2      -32.7150   -3.3640  -26.2740 N.pl3 348  ARG348      0.1354
     83  N        -27.7590   -3.3850  -19.2130 N.am  349  CYS349     -0.1956
     84  CA       -27.8760   -2.9920  -17.8280 C.3   349  CYS349      0.1843
     85  C        -27.2950   -3.9790  -16.8340 C.2   349  CYS349      0.2625
     86  O        -26.0680   -4.0960  -16.7750 O.2   349  CYS349     -0.2714
     87  CB       -29.3010   -2.5410  -17.5040 C.3   349  CYS349      0.0997
     88  SG       -29.6590   -0.9530  -18.3740 S.3   349  CYS349     -0.0797
     89  N        -28.0910   -4.7190  -16.0740 N.am  350  HIS350     -0.1973
     90  CA       -27.4090   -5.5620  -15.1070 C.3   350  HIS350      0.1656
     91  C        -28.1390   -6.6950  -14.4220 C.2   350  HIS350      0.2291
     92  O        -29.3700   -6.7690  -14.4220 O.2   350  HIS350     -0.2864
     93  CB       -26.8540   -4.6810  -13.9860 C.3   350  HIS350      0.0771
     94  CG       -27.8850   -4.3100  -12.9620 C.ar  350  HIS350      0.0820
     95  ND1      -28.5590   -3.1060  -12.9820 N.ar  350  HIS350     -0.2267
     96  CD2      -28.4150   -5.0180  -11.9360 C.ar  350  HIS350      0.1154
     97  CE1      -29.4610   -3.0880  -12.0130 C.ar  350  HIS350      0.1986
     98  NE2      -29.3970   -4.2380  -11.3650 N.ar  350  HIS350     -0.2212
     99  N        -36.5200    2.0200  -12.2780 N.3   373  THR373     -0.1203
    100  CA       -35.7920    0.7860  -12.5740 C.3   373  THR373      0.1994
    101  C        -35.2400    0.2320  -11.2620 C.2   373  THR373      0.2617
    102  O        -35.4470    0.8240  -10.2060 O.2   373  THR373     -0.2717
    103  CB       -34.6030    1.0160  -13.5280 C.3   373  THR373      0.1784
    104  OG1      -33.6220    1.8280  -12.8800 O.3   373  THR373     -0.2211
    105  CG2      -35.0650    1.6920  -14.8090 C.3   373  THR373      0.0376
    106  N        -34.5530   -0.9070  -11.3240 N.am  374  ASP374     -0.1973
    107  CA       -33.9680   -1.5100  -10.1240 C.3   374  ASP374      0.1709
    108  C        -32.5460   -0.9700   -9.9660 C.2   374  ASP374      0.2293
    109  O        -31.5610   -1.6030  -10.3580 O.2   374  ASP374     -0.2864
    110  CB       -33.9940   -3.0500  -10.2240 C.3   374  ASP374      0.1436
    111  CG       -33.3340   -3.5820  -11.4930 C.2   374  ASP374      0.3671
    112  OD1      -33.1330   -2.7990  -12.4530 O.co2 374  ASP374     -0.2456
    113  OD2      -33.0290   -4.8000  -11.5360 O.co2 374  ASP374     -0.2456
    114  N        -29.0400   -9.6840   -8.2880 N.3   380  MET380     -0.1245
    115  CA       -30.2240  -10.3970   -8.7300 C.3   380  MET380      0.1570
    116  C        -30.2380  -11.8780   -8.3990 C.2   380  MET380      0.2261
    117  O        -31.1630  -12.3530   -7.7340 O.2   380  MET380     -0.2867
    118  CB       -30.4270  -10.1890  -10.2350 C.3   380  MET380      0.0387
    119  CG       -31.0450   -8.8330  -10.5910 C.3   380  MET380      0.0595
    120  SD       -31.4670   -8.6540  -12.3490 S.3   380  MET380     -0.1393
    121  CE       -33.0430   -9.4530  -12.3610 C.3   380  MET380      0.0692
    122  N        -34.4810   -8.2280   -8.0090 N.3   385  SER385     -0.1217
    123  CA       -34.2080   -6.8370   -8.3530 C.3   385  SER385      0.1889
    124  C        -34.6440   -5.8250   -7.3000 C.2   385  SER385      0.2288
    125  O        -34.0400   -4.7700   -7.1620 O.2   385  SER385     -0.2866
    126  CB       -34.8760   -6.4970   -9.6850 C.3   385  SER385      0.2089
    127  OG       -34.1940   -7.1190  -10.7560 O.3   385  SER385     -0.2183
@<TRIPOS>BOND
     1    17    15   ar
     2    15    16   ar
     3    15    14    1
     4    81    80    1
     5    14    13    1
     6    82    80    1
     7    43    44    2
     8    43    42    1
     9    80    79    2
    10    13    10    1
    11    47    49   ar
    12    47    46   ar
    13    10     9    1
    14    10    11    1
    15    42    41    1
    16    42    45    1
    17    79    78    1
    18    49    50   ar
    19    33    32    1
    20    78    77    1
    21    46    45    1
    22    46    48   ar
    23    11    12    2
    24    11    18   am
    25    50    48   ar
    26    50    52   ar
    27    48    51   ar
    28    77    76    1
    29    18    19    1
    30    52    54   ar
    31    32    31    1
    32    30    27    1
    33    30    31    1
    34    24    23    2
    35    76    73    1
    36    26    27    1
    37    27    28    1
    38    51    53   ar
    39    19    22    1
    40    19    20    1
    41    73    72    1
    42    73    74    1
    43    54    53   ar
    44    23    25   am
    45    23    22    1
    46    20    21    2
    47    28    29    2
    48    28    34   am
    49    74    75    2
    50    74    83   am
    51    34    35    1
    52    83    84    1
    53    63    61   ar
    54    88    87    1
    55    62    61   ar
    56    61    60    1
    57    35    36    1
    58    35    38    1
    59    84    87    1
    60    84    85    1
    61     3     4    2
    62     3     2    1
    63    36    37    2
    64    40    38    1
    65    60    59    1
    66     5     2    1
    67     5     6    1
    68     7     6    1
    69    38    39    1
    70    85    86    2
    71    85    89   am
    72     2     1    1
    73     6     8    1
    74    89    90    1
    75    59    56    1
    76    55    56    1
    77    90    91    1
    78    90    93    1
    79    56    57    1
    80   105   103    1
    81    71    69   ar
    82    91    92    2
    83    93    94    1
    84    69    70   ar
    85    69    68    1
    86    57    64   am
    87    57    58    2
    88    64    65    1
    89   103   104    1
    90   103   100    1
    91    95    94   ar
    92    95    97   ar
    93    94    96   ar
    94    68    65    1
    95   100    99    1
    96   100   101    1
    97   112   111   ar
    98   121   120    1
    99    65    66    1
   100   120   119    1
   101    97    98   ar
   102    96    98   ar
   103   113   111   ar
   104   111   110    1
   105   106   101   am
   106   106   107    1
   107    66    67    2
   108   101   102    2
   109   127   126    1
   110   119   118    1
   111   109   108    2
   112   118   115    1
   113   110   107    1
   114   107   108    1
   115   126   123    1
   116   115   116    1
   117   115   114    1
   118   116   117    2
   119   123   122    1
   120   123   124    1
   121   124   125    2
