@<TRIPOS>MOLECULE
tmp/1m1jC00.pdb
 155 151 0 0 0
SMALL
GASTEIGER

@<TRIPOS>ATOM
      1  N         24.7890   -5.0970   37.8640 N.3   292  PHE292     -0.1241
      2  CA        23.5830   -5.2820   38.6350 C.3   292  PHE292      0.1605
      3  C         23.8310   -5.7830   40.0590 C.2   292  PHE292      0.2264
      4  O         23.0110   -5.5700   40.9530 O.2   292  PHE292     -0.2867
      5  CB        22.6650   -6.2330   37.8770 C.3   292  PHE292      0.0534
      6  CG        21.9550   -5.5910   36.7150 C.ar  292  PHE292     -0.0203
      7  CD1       20.8180   -4.8180   36.9210 C.ar  292  PHE292     -0.0042
      8  CD2       22.3960   -5.7940   35.4140 C.ar  292  PHE292     -0.0042
      9  CE1       20.1220   -4.2620   35.8450 C.ar  292  PHE292     -0.0003
     10  CE2       21.7060   -5.2410   34.3310 C.ar  292  PHE292     -0.0003
     11  CZ        20.5670   -4.4760   34.5470 C.ar  292  PHE292     -0.0000
     12  N         24.0620   -8.9620   40.9670 N.3   294  ASP294     -0.1225
     13  CA        23.6580  -10.3580   41.0990 C.3   294  ASP294      0.1805
     14  C         24.8440  -11.3120   40.9890 C.2   294  ASP294      0.2597
     15  O         24.9640  -12.2590   41.7580 O.2   294  ASP294     -0.2718
     16  CB        22.6340  -10.7130   40.0210 C.3   294  ASP294      0.1424
     17  CG        21.3090   -9.9860   40.2010 C.2   294  ASP294      0.3668
     18  OD1       21.2720   -8.9540   40.9080 O.co2 294  ASP294     -0.2456
     19  OD2       20.3010  -10.4460   39.6150 O.co2 294  ASP294     -0.2456
     20  N         25.7170  -11.0590   40.0240 N.am  295  ASP295     -0.1974
     21  CA        26.8720  -11.9120   39.7960 C.3   295  ASP295      0.1709
     22  C         28.0040  -11.0540   39.2300 C.2   295  ASP295      0.2293
     23  O         27.7630  -10.0010   38.6640 O.2   295  ASP295     -0.2864
     24  CB        26.5000  -13.0120   38.8100 C.3   295  ASP295      0.1436
     25  CG        27.5550  -14.0770   38.7050 C.2   295  ASP295      0.3671
     26  OD1       27.5610  -14.9880   39.5640 O.co2 295  ASP295     -0.2456
     27  OD2       28.3850  -14.0000   37.7740 O.co2 295  ASP295     -0.2456
     28  N         27.5960  -10.0640   35.5270 N.3   298  ASP298     -0.1239
     29  CA        26.4940   -9.2250   35.0990 C.3   298  ASP298      0.1674
     30  C         26.8150   -8.2970   33.9340 C.2   298  ASP298      0.2266
     31  O         26.2440   -8.4390   32.8520 O.2   298  ASP298     -0.2867
     32  CB        25.9570   -8.4120   36.2780 C.3   298  ASP298      0.1410
     33  CG        25.1950   -9.2680   37.2910 C.2   298  ASP298      0.3668
     34  OD1       24.8330  -10.4230   36.9750 O.co2 298  ASP298     -0.2456
     35  OD2       24.9430   -8.7720   38.4110 O.co2 298  ASP298     -0.2456
     36  N         27.5560   -9.6960   30.5480 N.3   301  TYR301     -0.1227
     37  CA        26.4320  -10.3740   29.9520 C.3   301  TYR301      0.1736
     38  C         25.2740   -9.4270   29.6740 C.2   301  TYR301      0.2596
     39  O         24.1980   -9.8670   29.2750 O.2   301  TYR301     -0.2718
     40  CB        25.9760  -11.4930   30.8870 C.3   301  TYR301      0.0548
     41  CG        26.7250  -12.8000   30.7320 C.ar  301  TYR301     -0.0200
     42  CD1       27.1260  -13.5250   31.8520 C.ar  301  TYR301     -0.0009
     43  CD2       27.0040  -13.3280   29.4690 C.ar  301  TYR301     -0.0009
     44  CE1       27.7820  -14.7300   31.7270 C.ar  301  TYR301      0.0417
     45  CE2       27.6610  -14.5400   29.3290 C.ar  301  TYR301      0.0417
     46  CZ        28.0500  -15.2340   30.4660 C.ar  301  TYR301      0.1957
     47  OH        28.7210  -16.4270   30.3580 O.3   301  TYR301     -0.2866
     48  N         25.4790   -8.1320   29.9000 N.am  302  THR302     -0.1953
     49  CA        24.4200   -7.1680   29.6390 C.3   302  THR302      0.1897
     50  C         24.8500   -5.9850   28.7780 C.2   302  THR302      0.2313
     51  O         24.1330   -4.9940   28.6890 O.2   302  THR302     -0.2863
     52  CB        23.7760   -6.6280   30.9430 C.3   302  THR302      0.1794
     53  OG1       24.7890   -6.1200   31.8200 O.3   302  THR302     -0.2208
     54  CG2       22.9840   -7.7190   31.6270 C.3   302  THR302      0.0378
     55  N         22.3690  -16.4540   25.7120 N.3   319  PHE319     -0.1227
     56  CA        21.7070  -17.1350   26.8100 C.3   319  PHE319      0.1736
     57  C         21.2210  -18.5330   26.3620 C.2   319  PHE319      0.2595
     58  O         20.7320  -18.6940   25.2550 O.2   319  PHE319     -0.2718
     59  CB        20.5430  -16.2690   27.2710 C.3   319  PHE319      0.0547
     60  CG        19.7400  -16.8550   28.3850 C.ar  319  PHE319     -0.0202
     61  CD1       20.3650  -17.4280   29.5000 C.ar  319  PHE319     -0.0042
     62  CD2       18.3480  -16.7950   28.3440 C.ar  319  PHE319     -0.0042
     63  CE1       19.6100  -17.9310   30.5600 C.ar  319  PHE319     -0.0003
     64  CE2       17.5800  -17.2980   29.4010 C.ar  319  PHE319     -0.0003
     65  CZ        18.2150  -17.8680   30.5150 C.ar  319  PHE319     -0.0000
     66  N         21.3760  -19.5330   27.2260 N.am  320  GLU320     -0.1979
     67  CA        20.9460  -20.9010   26.9180 C.3   320  GLU320      0.1602
     68  C         19.4440  -20.8530   26.6730 C.2   320  GLU320      0.2287
     69  O         18.8940  -21.6470   25.9050 O.2   320  GLU320     -0.2864
     70  CB        21.2810  -21.8550   28.0890 C.3   320  GLU320      0.0415
     71  CG        20.8390  -21.3650   29.4730 C.3   320  GLU320      0.1163
     72  CD        21.9370  -20.6260   30.2320 C.2   320  GLU320      0.3649
     73  OE1       22.8340  -20.0460   29.5770 O.co2 320  GLU320     -0.2457
     74  OE2       21.8940  -20.6160   31.4850 O.co2 320  GLU320     -0.2457
     75  N         16.0930  -14.9000   25.7480 N.3   323  CYS323     -0.1235
     76  CA        15.8100  -13.5650   26.3240 C.3   323  CYS323      0.1677
     77  C         14.5780  -12.9030   25.6900 C.2   323  CYS323      0.2270
     78  O         13.6220  -12.5320   26.3850 O.2   323  CYS323     -0.2867
     79  CB        17.0200  -12.6170   26.1750 C.3   323  CYS323      0.0956
     80  SG        18.5320  -13.0980   27.0910 S.3   323  CYS323     -0.0801
     81  N         11.3360  -14.6380   26.8500 N.3   326  GLN326     -0.1231
     82  CA        11.0190  -14.4080   28.2510 C.3   326  GLN326      0.1698
     83  C         10.6020  -12.9690   28.4940 C.2   326  GLN326      0.2592
     84  O          9.5750  -12.7290   29.1190 O.2   326  GLN326     -0.2718
     85  CB        12.2150  -14.7280   29.1650 C.3   326  GLN326      0.0381
     86  CG        12.9020  -16.0440   28.8810 C.3   326  GLN326      0.0905
     87  CD        13.8490  -16.4740   29.9990 C.2   326  GLN326      0.2608
     88  OE1       14.6810  -15.6930   30.4690 O.2   326  GLN326     -0.2717
     89  NE2       13.7280  -17.7290   30.4200 N.am  326  GLN326     -0.0878
     90  N         11.3980  -12.0110   28.0180 N.am  327  ASP327     -0.1974
     91  CA        11.0680  -10.6030   28.2440 C.3   327  ASP327      0.1709
     92  C         10.0170  -10.0420   27.2870 C.2   327  ASP327      0.2293
     93  O          9.5990   -8.8990   27.4260 O.2   327  ASP327     -0.2864
     94  CB        12.3420   -9.7500   28.2190 C.3   327  ASP327      0.1436
     95  CG        13.2020   -9.9480   29.4740 C.2   327  ASP327      0.3671
     96  OD1       12.9020  -10.8670   30.2610 O.co2 327  ASP327     -0.2456
     97  OD2       14.1780   -9.1970   29.6760 O.co2 327  ASP327     -0.2456
     98  N         23.1630  -11.7270   27.5760 N.3   335  ARG335     -0.1231
     99  CA        22.7020  -12.7530   28.5130 C.3   335  ARG335      0.1694
    100  C         21.6210  -11.8700   29.0570 C.2   335  ARG335      0.2592
    101  O         21.5430  -11.5470   30.2470 O.2   335  ARG335     -0.2718
    102  CB        23.6800  -13.0720   29.6220 C.3   335  ARG335      0.0321
    103  CG        23.2670  -14.3000   30.4190 C.3   335  ARG335      0.0489
    104  CD        23.9540  -15.5460   29.8850 C.3   335  ARG335      0.2205
    105  NE        23.5030  -16.8000   30.4980 N.pl3 335  ARG335     -0.0865
    106  CZ        23.3960  -17.0290   31.8070 C.cat 335  ARG335      0.5346
    107  NH1       23.6990  -16.0900   32.6970 N.pl3 335  ARG335      0.1354
    108  NH2       22.9790  -18.2140   32.2260 N.pl3 335  ARG335      0.1354
    109  N         20.8650  -11.4150   28.0710 N.am  336  CYS336     -0.1956
    110  CA        19.7300  -10.5300   28.1630 C.3   336  CYS336      0.1843
    111  C         20.0470   -9.0500   28.1380 C.2   336  CYS336      0.2625
    112  O         20.4900   -8.5700   27.0950 O.2   336  CYS336     -0.2714
    113  CB        18.8320  -10.9340   29.3110 C.3   336  CYS336      0.0997
    114  SG        18.1210  -12.6050   29.0250 S.3   336  CYS336     -0.0797
    115  N         19.9050   -8.3020   29.2240 N.am  337  HIS337     -0.1973
    116  CA        20.1300   -6.8740   29.0130 C.3   337  HIS337      0.1656
    117  C         20.3000   -5.8720   30.1440 C.2   337  HIS337      0.2291
    118  O         20.0390   -6.1500   31.3050 O.2   337  HIS337     -0.2864
    119  CB        18.9790   -6.3790   28.1580 C.3   337  HIS337      0.0771
    120  CG        17.6490   -6.4840   28.8410 C.ar  337  HIS337      0.0820
    121  ND1       17.2300   -5.5810   29.7970 N.ar  337  HIS337     -0.2267
    122  CD2       16.6470   -7.3860   28.7140 C.ar  337  HIS337      0.1154
    123  CE1       16.0260   -5.9200   30.2250 C.ar  337  HIS337      0.1986
    124  NE2       15.6490   -7.0120   29.5840 N.ar  337  HIS337     -0.2212
    125  N         11.4840  -12.1110   34.6970 N.3   360  TYR360     -0.1227
    126  CA        12.5490  -11.1990   35.0780 C.3   360  TYR360      0.1736
    127  C         12.1460   -9.7560   34.7920 C.2   360  TYR360      0.2595
    128  O         10.9590   -9.4710   34.6200 O.2   360  TYR360     -0.2718
    129  CB        13.8030  -11.5680   34.3070 C.3   360  TYR360      0.0548
    130  CG        14.1760  -13.0180   34.4670 C.ar  360  TYR360     -0.0200
    131  CD1       15.0460  -13.4310   35.4820 C.ar  360  TYR360     -0.0009
    132  CD2       13.6520  -13.9870   33.6100 C.ar  360  TYR360     -0.0009
    133  CE1       15.3900  -14.7860   35.6330 C.ar  360  TYR360      0.0417
    134  CE2       13.9860  -15.3420   33.7490 C.ar  360  TYR360      0.0417
    135  CZ        14.8560  -15.7300   34.7580 C.ar  360  TYR360      0.1957
    136  OH        15.2090  -17.0530   34.8610 O.3   360  TYR360     -0.2866
    137  N         13.1230   -8.8490   34.7490 N.am  361  ASP361     -0.1974
    138  CA        12.8460   -7.4250   34.4900 C.3   361  ASP361      0.1709
    139  C         12.6440   -7.1930   32.9970 C.2   361  ASP361      0.2293
    140  O         13.6020   -7.0260   32.2340 O.2   361  ASP361     -0.2864
    141  CB        13.9920   -6.5490   35.0180 C.3   361  ASP361      0.1436
    142  CG        15.3520   -6.9450   34.4550 C.2   361  ASP361      0.3671
    143  OD1       15.6710   -8.1510   34.4450 O.co2 361  ASP361     -0.2456
    144  OD2       16.1100   -6.0450   34.0330 O.co2 361  ASP361     -0.2456
    145  N         16.2780   -1.7650   37.2290 N.3   372  ARG372     -0.1245
    146  CA        15.5550   -2.7380   36.4490 C.3   372  ARG372      0.1563
    147  C         14.0740   -2.8530   36.7680 C.2   372  ARG372      0.2260
    148  O         13.3080   -3.4260   35.9890 O.2   372  ARG372     -0.2867
    149  CB        16.2320   -4.0980   36.6000 C.3   372  ARG372      0.0307
    150  CG        15.8280   -4.8450   37.8380 C.3   372  ARG372      0.0489
    151  CD        16.6050   -6.1330   37.9650 C.3   372  ARG372      0.2205
    152  NE        17.8260   -5.9450   38.7400 N.pl3 372  ARG372     -0.0865
    153  CZ        18.7080   -6.9090   38.9830 C.cat 372  ARG372      0.5346
    154  NH1       18.5080   -8.1340   38.5070 N.pl3 372  ARG372      0.1354
    155  NH2       19.7870   -6.6480   39.7120 N.pl3 372  ARG372      0.1354
@<TRIPOS>BOND
     1    58    57    2
     2    77    76    1
     3    77    78    2
     4    55    56    1
     5    75    76    1
     6    69    68    2
     7    79    76    1
     8    79    80    1
     9    57    56    1
    10    57    66   am
    11    68    67    1
    12    56    59    1
    13    81    82    1
    14    67    66    1
    15    67    70    1
    16    80   114    1
    17   112   111    2
    18    59    60    1
    19    92    93    2
    20    92    91    1
    21    98    99    1
    22    90    91    1
    23    90    83   am
    24   109   110    1
    25   109   100   am
    26    70    71    1
    27   111   110    1
    28   111   115   am
    29   119   120    1
    30   119   116    1
    31   110   113    1
    32    94    91    1
    33    94    95    1
    34    82    83    1
    35    82    85    1
    36    62    60   ar
    37    62    64   ar
    38    60    61   ar
    39    83    84    2
    40    99   100    1
    41    99   102    1
    42    51    50    2
    43   122   120   ar
    44   122   124   ar
    45    50    49    1
    46   120   121   ar
    47    86    85    1
    48    86    87    1
    49   116   115    1
    50   116   117    1
    51   114   113    1
    52   100   101    2
    53    39    38    2
    54    45    43   ar
    55    45    46   ar
    56    64    65   ar
    57    43    41   ar
    58    71    72    1
    59    95    97   ar
    60    95    96   ar
    61    61    63   ar
    62    73    72   ar
    63   124   123   ar
    64   102   103    1
    65    49    48    1
    66    49    52    1
    67    38    48   am
    68    38    37    1
    69   121   123   ar
    70   104   103    1
    71   104   105    1
    72    37    36    1
    73    37    40    1
    74    87    89   am
    75    87    88    2
    76   117   118    2
    77    72    74   ar
    78    47    46    1
    79    46    44   ar
    80   105   106    2
    81    65    63   ar
    82    41    40    1
    83    41    42   ar
    84    52    54    1
    85    52    53    1
    86    44    42   ar
    87   106   108    1
    88   106   107    1
    89   140   139    2
    90    31    30    2
    91   139   138    1
    92   132   134   ar
    93   132   130   ar
    94   134   135   ar
    95    30    29    1
    96   144   142   ar
    97   129   130    1
    98   129   126    1
    99    10    11   ar
   100    10     8   ar
   101   143   142   ar
   102   142   141    1
   103   130   131   ar
   104   138   137    1
   105   138   141    1
   106    11     9   ar
   107   128   127    2
   108   125   126    1
   109   137   127   am
   110   135   136    1
   111   135   133   ar
   112   127   126    1
   113    29    28    1
   114    29    32    1
   115     8     6   ar
   116   131   133   ar
   117     9     7   ar
   118   148   147    2
   119    32    33    1
   120   146   149    1
   121   146   147    1
   122   146   145    1
   123   149   150    1
   124     6     7   ar
   125     6     5    1
   126    34    33   ar
   127    33    35   ar
   128    27    25   ar
   129   150   151    1
   130     1     2    1
   131     5     2    1
   132   151   152    1
   133   154   153    1
   134     2     3    1
   135    23    22    2
   136    25    24    1
   137    25    26   ar
   138   152   153    2
   139    24    21    1
   140   153   155    1
   141    22    21    1
   142    19    17   ar
   143    21    20    1
   144    16    17    1
   145    16    13    1
   146    20    14   am
   147     3     4    2
   148    17    18   ar
   149    12    13    1
   150    14    13    1
   151    14    15    2
