@<TRIPOS>MOLECULE
tmp/1m1pF00.pdb
 137 130 0 0 0
SMALL
GASTEIGER

@<TRIPOS>ATOM
      1  N        -13.9720   27.0710   85.4400 N.3     5  SER5       -0.1202
      2  CA       -15.3710   27.3880   85.6650 C.3     5  SER5        0.2020
      3  C        -16.0760   27.9000   84.4010 C.2     5  SER5        0.2618
      4  O        -17.1550   27.3990   84.0430 O.2     5  SER5       -0.2717
      5  CB       -15.5070   28.4030   86.7880 C.3     5  SER5        0.2103
      6  OG       -14.7750   29.5740   86.4940 O.3     5  SER5       -0.2182
      7  N        -15.4490   28.8580   83.7170 N.am    6  ASP6       -0.1973
      8  CA       -16.0040   29.4190   82.4730 C.3     6  ASP6        0.1709
      9  C        -16.1050   28.4000   81.3270 C.2     6  ASP6        0.2293
     10  O        -17.0770   28.3930   80.5680 O.2     6  ASP6       -0.2864
     11  CB       -15.1700   30.6260   82.0120 C.3     6  ASP6        0.1436
     12  CG       -15.3680   31.8450   82.9040 C.2     6  ASP6        0.3671
     13  OD1      -16.4370   31.9330   83.5490 O.co2   6  ASP6       -0.2456
     14  OD2      -14.5120   32.7440   83.0390 O.co2   6  ASP6       -0.2456
     15  N        -16.6030   25.1910   81.7530 N.3     8  HIS8       -0.1226
     16  CA       -17.8260   24.4340   82.0510 C.3     8  HIS8        0.1752
     17  C        -19.1070   25.2180   81.7400 C.2     8  HIS8        0.2595
     18  O        -20.1020   24.6610   81.2860 O.2     8  HIS8       -0.2718
     19  CB       -17.8580   23.9970   83.5380 C.3     8  HIS8        0.0759
     20  CG       -17.0020   22.7940   83.8590 C.ar    8  HIS8        0.0818
     21  ND1      -15.6630   22.8990   84.1760 N.ar    8  HIS8       -0.2268
     22  CD2      -17.3130   21.4770   83.9630 C.ar    8  HIS8        0.1154
     23  CE1      -15.1790   21.6930   84.4390 C.ar    8  HIS8        0.1986
     24  NE2      -16.1630   20.8190   84.3300 N.ar    8  HIS8       -0.2212
     25  N        -19.0790   26.5130   82.0320 N.am    9  ALA9       -0.1980
     26  CA       -20.2600   27.3450   81.8740 C.3     9  ALA9        0.1597
     27  C        -20.6920   27.4820   80.4220 C.2     9  ALA9        0.2287
     28  O        -21.8480   27.7500   80.1670 O.2     9  ALA9       -0.2864
     29  CB       -20.0080   28.7340   82.4890 C.3     9  ALA9        0.0319
     30  N        -24.0400   26.7440   81.8670 N.3    13  GLY13      -0.1210
     31  CA       -24.0290   27.9580   82.6630 C.3    13  GLY13       0.1956
     32  C        -23.6340   27.6780   84.1060 C.2    13  GLY13       0.2612
     33  O        -23.0760   26.6130   84.4230 O.2    13  GLY13      -0.2717
     34  N        -23.9260   28.6370   84.9870 N.am   14  CYS14      -0.1970
     35  CA       -23.5870   28.5060   86.3970 C.3    14  CYS14       0.1712
     36  C        -24.4080   27.4120   87.0860 C.2    14  CYS14       0.2296
     37  O        -23.9540   26.8600   88.0920 O.2    14  CYS14      -0.2864
     38  CB       -23.8340   29.8430   87.1210 C.3    14  CYS14       0.0983
     39  SG       -23.0990   31.2840   86.2890 S.3    14  CYS14      -0.0798
     40  N        -24.9520   24.3740   86.0770 N.3    16  SER16      -0.1202
     41  CA       -24.3220   23.0400   85.9640 C.3    16  SER16       0.2020
     42  C        -23.6770   22.5940   87.2880 C.2    16  SER16       0.2619
     43  O        -23.7250   21.4060   87.6250 O.2    16  SER16      -0.2717
     44  CB       -23.2960   23.0030   84.8420 C.3    16  SER16       0.2103
     45  OG       -22.3050   23.9870   85.0510 O.3    16  SER16      -0.2182
     46  N        -23.1250   23.5430   88.0480 N.am   17  CYS17      -0.1955
     47  CA       -22.4590   23.2500   89.3220 C.3    17  CYS17       0.1843
     48  C        -23.1620   23.7580   90.5740 C.2    17  CYS17       0.2625
     49  O        -22.9420   23.2350   91.6660 O.2    17  CYS17      -0.2714
     50  CB       -21.0170   23.7820   89.3230 C.3    17  CYS17       0.0997
     51  SG       -19.9830   22.9340   88.1050 S.3    17  CYS17      -0.0797
     52  N        -23.9580   24.8150   90.4270 N.am   18  HIS18      -0.1973
     53  CA       -24.5030   25.5580   91.5870 C.3    18  HIS18       0.1656
     54  C        -26.0300   25.4530   91.5440 C.2    18  HIS18       0.2291
     55  O        -26.6280   25.7060   90.4900 O.2    18  HIS18      -0.2864
     56  CB       -24.1130   27.0440   91.4980 C.3    18  HIS18       0.0771
     57  CG       -22.6610   27.3260   91.7370 C.ar   18  HIS18       0.0820
     58  ND1      -22.0030   26.9540   92.8840 N.ar   18  HIS18      -0.2267
     59  CD2      -21.7490   28.0010   90.9860 C.ar   18  HIS18       0.1154
     60  CE1      -20.7430   27.3530   92.8260 C.ar   18  HIS18       0.1986
     61  NE2      -20.5690   28.0060   91.6960 N.ar   18  HIS18      -0.2212
     62  N        -28.1050   28.2340   90.1820 N.3    21  GLY21      -0.1225
     63  CA       -27.0780   29.1530   89.7110 C.3    21  GLY21       0.1811
     64  C        -26.3300   29.9560   90.7790 C.2    21  GLY21       0.2280
     65  O        -25.4940   30.7870   90.4200 O.2    21  GLY21      -0.2866
     66  N        -23.9570   29.9040   94.4550 N.3    23  PRO23      -0.2102
     67  CA       -23.0850   29.0710   95.2880 C.3    23  PRO23       0.1504
     68  C        -23.6070   28.8090   96.7090 C.2    23  PRO23       0.2576
     69  O        -24.1700   29.7200   97.3470 O.2    23  PRO23      -0.2718
     70  CB       -21.7860   29.8900   95.3690 C.3    23  PRO23       0.0282
     71  CG       -22.2360   31.3350   95.0870 C.3    23  PRO23       0.0208
     72  CD       -23.3680   31.2220   94.1320 C.3    23  PRO23       0.0893
     73  N        -23.4260   27.5810   97.1750 N.am   24  SER24      -0.1938
     74  CA       -23.6210   27.2540   98.5870 C.3    24  SER24       0.2055
     75  C        -22.4030   27.7300   99.3780 C.2    24  SER24       0.2642
     76  O        -21.3550   28.0480   98.7990 O.2    24  SER24      -0.2714
     77  CB       -23.7740   25.7500   98.7640 C.3    24  SER24       0.2130
     78  OG       -22.5160   25.0770   98.5990 O.3    24  SER24      -0.2179
     79  N        -22.5460   27.7590  100.7060 N.am   25  ALA25      -0.1977
     80  CA       -21.4140   28.0370  101.5820 C.3    25  ALA25       0.1597
     81  C        -20.6330   26.7680  101.9220 C.2    25  ALA25       0.2287
     82  O        -19.4280   26.8280  102.1630 O.2    25  ALA25      -0.2864
     83  CB       -21.8940   28.6940  102.8500 C.3    25  ALA25       0.0319
     84  N        -20.3470   23.9300  100.0840 N.3    27  GLY27      -0.1225
     85  CA       -19.7790   23.2240   98.9290 C.3    27  GLY27       0.1811
     86  C        -20.3370   21.8190   98.6620 C.2    27  GLY27       0.2280
     87  O        -19.8680   21.1070   97.7650 O.2    27  GLY27      -0.2866
     88  N        -22.1710   21.3470   95.2020 N.3    30  GLU30      -0.1245
     89  CA       -21.1550   21.4360   94.1500 C.3    30  GLU30       0.1567
     90  C        -20.3570   20.1210   94.0150 C.2    30  GLU30       0.2260
     91  O        -20.1720   19.5880   92.8960 O.2    30  GLU30      -0.2867
     92  CB       -20.2310   22.6290   94.4390 C.3    30  GLU30       0.0388
     93  CG       -20.8870   24.0170   94.2400 C.3    30  GLU30       0.1160
     94  CD       -21.8480   24.4520   95.3490 C.2    30  GLU30       0.3649
     95  OE1      -21.8960   23.8000   96.4040 O.co2  30  GLU30      -0.2457
     96  OE2      -22.5370   25.4600   95.1390 O.co2  30  GLU30      -0.2457
     97  N        -19.9240   17.6380   90.6540 N.3    34  CYS34      -0.1235
     98  CA       -18.6830   17.1330   90.0190 C.3    34  CYS34       0.1677
     99  C        -18.7400   15.6300   89.8470 C.2    34  CYS34       0.2270
    100  O        -18.4240   15.1100   88.7720 O.2    34  CYS34      -0.2867
    101  CB       -17.4210   17.4090   90.8400 C.3    34  CYS34       0.0956
    102  SG       -17.1150   19.0830   91.4670 S.3    34  CYS34      -0.0801
    103  N        -12.8540   20.2030   94.8490 N.3    58  ALA58      -0.1245
    104  CA       -12.4420   21.6080   94.9590 C.3    58  ALA58       0.1562
    105  C        -11.2420   21.8510   95.8920 C.2    58  ALA58       0.2260
    106  O        -10.6370   22.9300   95.8390 O.2    58  ALA58      -0.2867
    107  CB       -13.6540   22.4950   95.3630 C.3    58  ALA58       0.0290
    108  N         -9.3220   24.2800   91.9500 N.3    62  ALA62      -0.1231
    109  CA        -9.9370   25.5570   92.2610 C.3    62  ALA62       0.1694
    110  C        -10.4420   26.1340   90.9590 C.2    62  ALA62       0.2592
    111  O         -9.7170   26.8290   90.2410 O.2    62  ALA62      -0.2718
    112  CB        -8.9150   26.4850   92.9150 C.3    62  ALA62       0.0304
    113  N        -11.6810   25.7930   90.6010 N.am   63  VAL63      -0.1966
    114  CA       -12.1470   25.9910   89.2360 C.3    63  VAL63       0.1727
    115  C        -12.2610   27.4510   88.7980 C.2    63  VAL63       0.2616
    116  O        -12.2540   27.7430   87.6090 O.2    63  VAL63      -0.2715
    117  CB       -13.4650   25.2180   88.9420 C.3    63  VAL63       0.0290
    118  CG1      -13.2570   23.7200   89.1820 C.3    63  VAL63       0.0023
    119  CG2      -14.6540   25.7520   89.7860 C.3    63  VAL63       0.0023
    120  N        -12.4010   28.3570   89.7650 N.am   64  HIS64      -0.1959
    121  CA       -12.5260   29.7700   89.4520 C.3    64  HIS64       0.1787
    122  C        -11.1640   30.4410   89.3450 C.2    64  HIS64       0.2620
    123  O        -11.0840   31.5610   88.8510 O.2    64  HIS64      -0.2715
    124  CB       -13.4080   30.4710   90.5000 C.3    64  HIS64       0.0785
    125  CG       -14.8800   30.2180   90.3040 C.ar   64  HIS64       0.0821
    126  ND1      -15.5940   30.7600   89.2620 N.ar   64  HIS64      -0.2267
    127  CD2      -15.7680   29.4750   91.0160 C.ar   64  HIS64       0.1154
    128  CE1      -16.8540   30.3610   89.3280 C.ar   64  HIS64       0.1986
    129  NE2      -16.9840   29.5680   90.3780 N.ar   64  HIS64      -0.2212
    130  N        -10.1240   29.7570   89.7970 N.am   65  ASP65      -0.1971
    131  CA        -8.7800   30.3480   89.8880 C.3    65  ASP65       0.1709
    132  C         -7.7700   29.7370   88.9250 C.2    65  ASP65       0.2293
    133  O         -6.7630   30.3820   88.5890 O.2    65  ASP65      -0.2864
    134  CB        -8.2690   30.2790   91.3300 C.3    65  ASP65       0.1436
    135  CG        -9.1430   31.0620   92.2830 C.2    65  ASP65       0.3671
    136  OD1       -9.5720   32.1800   91.9080 O.co2  65  ASP65      -0.2456
    137  OD2       -9.4460   30.6320   93.4210 O.co2  65  ASP65      -0.2456
@<TRIPOS>BOND
     1    28    27    2
     2    27    26    1
     3    10     9    2
     4    18    17    2
     5     9     8    1
     6    17    25   am
     7    17    16    1
     8    15    16    1
     9    30    31    1
    10    26    25    1
    11    26    29    1
    12    11     8    1
    13    11    12    1
    14    16    19    1
    15     8     7    1
    16    31    32    1
    17    12    14   ar
    18    12    13   ar
    19    19    20    1
    20     7     3   am
    21    20    22   ar
    22    20    21   ar
    23    22    24   ar
    24     4     3    2
    25    32    33    2
    26    32    34   am
    27    21    23   ar
    28    24    23   ar
    29     3     2    1
    30    44    45    1
    31    44    41    1
    32    34    35    1
    33     1     2    1
    34     2     5    1
    35    41    40    1
    36    41    42    1
    37    39    38    1
    38    35    36    1
    39    35    38    1
    40     6     5    1
    41    36    37    2
    42    42    43    2
    43    42    46   am
    44   116   115    2
    45    46    47    1
    46    51    50    1
    47   133   132    2
    48   100    99    2
    49   115   114    1
    50   115   120   am
    51   123   122    2
    52   132   131    1
    53   117   118    1
    54   117   114    1
    55   117   119    1
    56   114   113    1
    57   126   128   ar
    58   126   125   ar
    59    47    50    1
    60    47    48    1
    61   128   129   ar
    62   122   121    1
    63   122   130   am
    64   121   120    1
    65   121   124    1
    66    63    62    1
    67    63    64    1
    68   130   131    1
    69    99    98    1
    70   131   134    1
    71    98    97    1
    72    98   101    1
    73   111   110    2
    74   125   124    1
    75   125   127   ar
    76   129   127   ar
    77    65    64    2
    78    52    48   am
    79    52    53    1
    80    55    54    2
    81    48    49    2
    82   113   110   am
    83   101   102    1
    84   110   109    1
    85    59    61   ar
    86    59    57   ar
    87   134   135    1
    88    56    53    1
    89    56    57    1
    90    54    53    1
    91    61    60   ar
    92    57    58   ar
    93   136   135   ar
    94   108   109    1
    95   109   112    1
    96   135   137   ar
    97    60    58   ar
    98    91    90    2
    99    90    89    1
   100    72    66    1
   101    72    71    1
   102    89    92    1
   103    89    88    1
   104    93    92    1
   105    93    94    1
   106    66    67    1
   107   103   104    1
   108   104   107    1
   109   104   105    1
   110    71    70    1
   111    96    94   ar
   112    67    70    1
   113    67    68    1
   114    94    95   ar
   115   106   105    2
   116    68    73   am
   117    68    69    2
   118    73    74    1
   119    87    86    2
   120    74    77    1
   121    74    75    1
   122    78    77    1
   123    86    85    1
   124    76    75    2
   125    85    84    1
   126    75    79   am
   127    79    80    1
   128    80    81    1
   129    80    83    1
   130    81    82    2
