@<TRIPOS>MOLECULE
tmp/1m1pE00.pdb
 69 67 0 0 0
SMALL
GASTEIGER

@<TRIPOS>ATOM
      1  N        -13.0000   12.3640   67.7050 N.3    70  GLN70      -0.1231
      2  CA       -13.5050   12.0840   66.3580 C.3    70  GLN70       0.1698
      3  C        -14.8840   12.7120   66.2020 C.2    70  GLN70       0.2592
      4  O        -15.8040   12.4100   66.9580 O.2    70  GLN70      -0.2718
      5  CB       -13.5840   10.5720   66.0990 C.3    70  GLN70       0.0381
      6  CG       -13.9410   10.2500   64.6490 C.3    70  GLN70       0.0905
      7  CD       -14.1180    8.7770   64.3910 C.2    70  GLN70       0.2608
      8  OE1      -14.8540    8.4030   63.4750 O.2    70  GLN70      -0.2717
      9  NE2      -13.4750    7.9480   65.1680 N.am   70  GLN70      -0.0878
     10  N        -15.0230   13.5890   65.2240 N.am   71  LYS71      -0.1966
     11  CA       -16.2770   14.2970   64.9800 C.3    71  LYS71       0.1713
     12  C        -17.1610   13.5500   63.9970 C.2    71  LYS71       0.2458
     13  O        -16.6860   13.0620   62.9550 O.2    71  LYS71      -0.2730
     14  CB       -15.9930   15.7090   64.4550 C.3    71  LYS71       0.0311
     15  CG       -15.1560   16.5880   65.3950 C.3    71  LYS71       0.0038
     16  CD       -14.7570   17.8500   64.6440 C.3    71  LYS71       0.0206
     17  CE       -14.4150   19.0110   65.5660 C.3    71  LYS71       0.1093
     18  NZ       -12.9830   19.0900   65.9130 N.3    71  LYS71      -0.1314
     19  N        -18.4460   13.4460   64.2950 N.am   72  PRO72      -0.2716
     20  CA       -19.3890   12.8990   63.3130 C.3    72  PRO72       0.1536
     21  C        -19.4400   13.7630   62.0400 C.2    72  PRO72       0.2599
     22  O        -19.4660   14.9900   62.1530 O.2    72  PRO72      -0.2715
     23  CB       -20.7350   12.9390   64.0520 C.3    72  PRO72       0.0310
     24  CG       -20.3800   13.0200   65.4800 C.3    72  PRO72       0.0237
     25  CD       -19.0970   13.7780   65.5820 C.3    72  PRO72       0.0939
     26  N        -19.4700   13.1350   60.8640 N.am   73  THR73      -0.1937
     27  CA       -19.5510   13.8860   59.6080 C.3    73  THR73       0.2028
     28  C        -20.9500   13.8250   58.9930 C.2    73  THR73       0.2642
     29  O        -21.7150   12.8520   59.1960 O.2    73  THR73      -0.2714
     30  CB       -18.5130   13.3380   58.6150 C.3    73  THR73       0.1808
     31  OG1      -18.6500   11.9140   58.5250 O.3    73  THR73      -0.2208
     32  CG2      -17.0590   13.5910   59.1330 C.3    73  THR73       0.0379
     33  N        -21.2970   14.8550   58.2340 N.am   74  CYS74      -0.1953
     34  CA       -22.7130   15.0780   57.9100 C.3    74  CYS74       0.1843
     35  C        -23.2280   14.2080   56.7620 C.2    74  CYS74       0.2625
     36  O        -24.4590   13.9830   56.6490 O.2    74  CYS74      -0.2714
     37  CB       -22.9430   16.5360   57.5370 C.3    74  CYS74       0.0997
     38  SG       -22.2550   17.7530   58.6900 S.3    74  CYS74      -0.0797
     39  N        -22.3200   13.7010   55.9240 N.am   75  GLU75      -0.1977
     40  CA       -22.7300   12.9590   54.7230 C.3    75  GLU75       0.1602
     41  C        -23.3140   11.5830   54.9960 C.2    75  GLU75       0.2287
     42  O        -23.8000   10.9460   54.0730 O.2    75  GLU75      -0.2864
     43  CB       -21.5960   12.9010   53.6910 C.3    75  GLU75       0.0415
     44  CG       -20.4020   12.0570   54.1170 C.3    75  GLU75       0.1163
     45  CD       -19.3660   12.8330   54.9100 C.2    75  GLU75       0.3649
     46  OE1      -19.5940   14.0310   55.2390 O.co2  75  GLU75      -0.2457
     47  OE2      -18.3200   12.2180   55.1890 O.co2  75  GLU75      -0.2457
     48  N        -23.2610   17.9840   50.9270 N.3    81  GLY81      -0.1225
     49  CA       -21.9460   18.4380   51.3210 C.3    81  GLY81       0.1811
     50  C        -21.8580   19.4400   52.4620 C.2    81  GLY81       0.2280
     51  O        -20.8230   20.0980   52.6390 O.2    81  GLY81      -0.2866
     52  N        -21.4260   20.9300   56.2550 N.3    83  THR83      -0.1203
     53  CA       -20.3840   20.6740   57.2400 C.3    83  THR83       0.1994
     54  C        -20.6150   21.4410   58.5410 C.2    83  THR83       0.2619
     55  O        -21.2660   22.5070   58.5510 O.2    83  THR83      -0.2717
     56  CB       -19.0020   21.1360   56.7240 C.3    83  THR83       0.1784
     57  OG1      -19.0460   22.5350   56.4090 O.3    83  THR83      -0.2211
     58  CG2      -18.6140   20.4500   55.4030 C.3    83  THR83       0.0376
     59  N        -20.0280   20.9030   59.6100 N.am   84  SER84      -0.1937
     60  CA       -19.8750   21.6250   60.8650 C.3    84  SER84       0.2055
     61  C        -19.0980   22.9290   60.6560 C.2    84  SER84       0.2642
     62  O        -19.4300   23.9550   61.2460 O.2    84  SER84      -0.2714
     63  CB       -19.1750   20.7250   61.8950 C.3    84  SER84       0.2130
     64  OG       -18.7890   21.4500   63.0320 O.3    84  SER84      -0.2179
     65  N        -18.0490   22.8910   59.8290 N.am   85  ALA85      -0.1977
     66  CA       -17.2620   24.1000   59.5560 C.3    85  ALA85       0.1597
     67  C        -18.1670   25.2440   59.0760 C.2    85  ALA85       0.2287
     68  O        -18.0290   26.3910   59.5210 O.2    85  ALA85      -0.2864
     69  CB       -16.2040   23.8080   58.5240 C.3    85  ALA85       0.0319
@<TRIPOS>BOND
     1    48    49    1
     2    49    50    1
     3    50    51    2
     4    43    44    1
     5    43    40    1
     6    42    41    2
     7    44    45    1
     8    40    41    1
     9    40    39    1
    10    45    47   ar
    11    45    46   ar
    12    58    56    1
    13    39    35   am
    14    52    53    1
    15    57    56    1
    16    36    35    2
    17    56    53    1
    18    35    34    1
    19    53    54    1
    20    37    34    1
    21    37    38    1
    22    34    33    1
    23    33    28   am
    24    69    66    1
    25    31    30    1
    26    54    55    2
    27    54    59   am
    28    30    32    1
    29    30    27    1
    30    28    29    2
    31    28    27    1
    32    67    68    2
    33    67    66    1
    34    66    65    1
    35    27    26    1
    36    59    60    1
    37    65    61   am
    38    61    60    1
    39    61    62    2
    40    26    21   am
    41    60    63    1
    42    63    64    1
    43    21    22    2
    44    21    20    1
    45    13    12    2
    46    20    23    1
    47    20    19    1
    48     8     7    2
    49    12    19   am
    50    12    11    1
    51    23    24    1
    52    19    25    1
    53     7     6    1
    54     7     9   am
    55    14    11    1
    56    14    15    1
    57    16    15    1
    58    16    17    1
    59     6     5    1
    60    11    10    1
    61    10     3   am
    62    24    25    1
    63    17    18    1
    64     5     2    1
    65     3     2    1
    66     3     4    2
    67     2     1    1
