@<TRIPOS>MOLECULE
tmp/1m1rA01.pdb
 132 128 0 0 0
SMALL
GASTEIGER

@<TRIPOS>ATOM
      1  N          9.1120   20.1930   23.7300 N.3    47  ALA47      -0.1231
      2  CA         8.9530   19.1010   24.6430 C.3    47  ALA47       0.1694
      3  C          7.7670   18.1850   24.3680 C.2    47  ALA47       0.2591
      4  O          7.7540   17.0160   24.7660 O.2    47  ALA47      -0.2718
      5  CB         8.7830   19.6190   26.0920 C.3    47  ALA47       0.0304
      6  N          6.7630   18.6770   23.6870 N.am   48  VAL48      -0.1980
      7  CA         5.6400   17.8100   23.2580 C.3    48  VAL48       0.1595
      8  C          6.1190   16.8710   22.1730 C.2    48  VAL48       0.2287
      9  O          5.7050   15.7060   22.0860 O.2    48  VAL48      -0.2864
     10  CB         4.4930   18.6610   22.7710 C.3    48  VAL48       0.0276
     11  CG1        3.3790   17.8840   22.0910 C.3    48  VAL48       0.0022
     12  CG2        3.8390   19.4350   23.9100 C.3    48  VAL48       0.0022
     13  N          9.7360   13.4510   22.6880 N.pl3  51  PRO51      -0.2287
     14  CA         9.6620   12.0460   23.1020 C.3    51  PRO51       0.1743
     15  C          9.0830   11.1270   22.0400 C.2    51  PRO51       0.2618
     16  O          9.1600    9.9110   22.1770 O.2    51  PRO51      -0.2715
     17  CB         8.7270   12.0810   24.3310 C.3    51  PRO51       0.0584
     18  CG         8.2900   13.4730   24.4820 C.2    51  PRO51      -0.0065
     19  CD         8.9110   14.3660   23.5470 C.2    51  PRO51       0.0761
     20  N          8.4320   11.7520   21.0130 N.am   52  HIS52      -0.1973
     21  CA         7.8210   10.9570   19.9720 C.3    52  HIS52       0.1656
     22  C          8.7530   10.6220   18.8020 C.2    52  HIS52       0.2291
     23  O          8.3870    9.8580   17.9380 O.2    52  HIS52      -0.2864
     24  CB         6.5400   11.6860   19.5040 C.3    52  HIS52       0.0771
     25  CG         5.6110   11.9030   20.6810 C.ar   52  HIS52       0.0820
     26  ND1        5.5240   13.0670   21.3860 N.ar   52  HIS52      -0.2267
     27  CD2        4.8160   11.0430   21.3240 C.ar   52  HIS52       0.1154
     28  CE1        4.6940   12.9170   22.3980 C.ar   52  HIS52       0.1986
     29  NE2        4.2260   11.7010   22.4140 N.ar   52  HIS52      -0.2212
     30  N          9.1150    7.0920   17.2390 N.3    55  ASN55      -0.1225
     31  CA         7.9210    6.3640   17.6280 C.3    55  ASN55       0.1785
     32  C          6.7120    6.7460   16.7550 C.2    55  ASN55       0.2597
     33  O          6.0060    5.8560   16.3600 O.2    55  ASN55      -0.2718
     34  CB         7.6300    6.6660   19.1430 C.3    55  ASN55       0.1169
     35  CG         8.6860    6.0970   20.0530 C.2    55  ASN55       0.2627
     36  OD1        8.8700    4.8870   19.9500 O.2    55  ASN55      -0.2716
     37  ND2        9.2560    7.0140   20.9090 N.am   55  ASN55      -0.0877
     38  N          6.4690    8.0070   16.5560 N.am   56  LEU56      -0.1980
     39  CA         5.3160    8.4890   15.8290 C.3    56  LEU56       0.1596
     40  C          5.7530    9.1830   14.5200 C.2    56  LEU56       0.2287
     41  O          6.8600    9.6950   14.4140 O.2    56  LEU56      -0.2864
     42  CB         4.5150    9.5160   16.6700 C.3    56  LEU56       0.0297
     43  CG         3.9210    8.9880   17.9600 C.3    56  LEU56       0.0022
     44  CD1        2.9880   10.0720   18.5550 C.3    56  LEU56       0.0001
     45  CD2        3.2230    7.6360   17.8170 C.3    56  LEU56       0.0001
     46  N          0.1790   11.0630   13.3020 N.3    60  ASP60      -0.1225
     47  CA        -0.4110   10.3740   14.4310 C.3    60  ASP60       0.1805
     48  C         -1.0400   11.3500   15.4160 C.2    60  ASP60       0.2598
     49  O         -1.9150   10.9310   16.2120 O.2    60  ASP60      -0.2718
     50  CB         0.6720    9.5520   15.1040 C.3    60  ASP60       0.1424
     51  CG         1.0980    8.3360   14.3420 C.2    60  ASP60       0.3668
     52  OD1        0.2740    7.6850   13.6510 O.co2  60  ASP60      -0.2456
     53  OD2        2.2890    8.0030   14.4200 O.co2  60  ASP60      -0.2456
     54  N         -0.6490   12.6290   15.3880 N.am   61  CYS61      -0.1970
     55  CA        -1.2390   13.7010   16.1800 C.3    61  CYS61       0.1712
     56  C         -1.9580   14.7050   15.3190 C.2    61  CYS61       0.2296
     57  O         -3.1050   15.0830   15.5980 O.2    61  CYS61      -0.2864
     58  CB        -0.1610   14.3960   17.0220 C.3    61  CYS61       0.0983
     59  SG         0.5200   13.3140   18.2810 S.3    61  CYS61      -0.0798
     60  N         -3.4800   19.1540   18.4450 N.3    73  PRO73      -0.2102
     61  CA        -3.7640   17.8200   18.9200 C.3    73  PRO73       0.1504
     62  C         -3.8370   17.7800   20.4910 C.2    73  PRO73       0.2576
     63  O         -3.1620   18.5190   21.1620 O.2    73  PRO73      -0.2718
     64  CB        -2.5290   17.0020   18.4980 C.3    73  PRO73       0.0282
     65  CG        -2.0250   17.7210   17.2800 C.3    73  PRO73       0.0208
     66  CD        -2.2170   19.1850   17.5930 C.3    73  PRO73       0.0893
     67  N         -4.6630   16.8630   20.9550 N.am   74  THR74      -0.1939
     68  CA        -4.7460   16.4860   22.3340 C.3    74  THR74       0.2028
     69  C         -4.1590   15.0990   22.5450 C.2    74  THR74       0.2642
     70  O         -3.6200   14.4890   21.5910 O.2    74  THR74      -0.2714
     71  CB        -6.1620   16.5570   22.8860 C.3    74  THR74       0.1808
     72  OG1       -6.9850   15.6470   22.1810 O.3    74  THR74      -0.2208
     73  CG2       -6.6810   17.9860   22.7620 C.3    74  THR74       0.0379
     74  N         -4.1360   14.5990   23.7730 N.am   75  CYS75      -0.1967
     75  CA        -3.2620   13.5130   24.1730 C.3    75  CYS75       0.1712
     76  C         -3.9520   12.2530   24.6170 C.2    75  CYS75       0.2296
     77  O         -3.3220   11.2120   24.8360 O.2    75  CYS75      -0.2864
     78  CB        -2.2960   13.9820   25.2990 C.3    75  CYS75       0.0983
     79  SG        -1.5920   15.6230   24.9880 S.3    75  CYS75      -0.0798
     80  N         -5.8970   10.0490   23.2800 N.3    77  SER77      -0.1202
     81  CA        -5.9950    8.8430   22.4940 C.3    77  SER77       0.2020
     82  C         -4.9420    7.8390   22.8790 C.2    77  SER77       0.2619
     83  O         -5.1290    6.6360   22.6110 O.2    77  SER77      -0.2717
     84  CB        -6.0570    9.1730   21.0140 C.3    77  SER77       0.2103
     85  OG        -4.8210    9.5680   20.5790 O.3    77  SER77      -0.2182
     86  N         -3.7970    8.2930   23.4120 N.am   78  CYS78      -0.1955
     87  CA        -2.6580    7.3940   23.6590 C.3    78  CYS78       0.1843
     88  C         -2.1490    7.3830   25.1080 C.2    78  CYS78       0.2625
     89  O         -1.4440    6.4350   25.4590 O.2    78  CYS78      -0.2714
     90  CB        -1.4580    7.7980   22.8120 C.3    78  CYS78       0.0997
     91  SG        -1.8300    7.4680   21.0470 S.3    78  CYS78      -0.0797
     92  N         -2.4230    8.3910   25.9010 N.am   79  HIS79      -0.1973
     93  CA        -1.9610    8.4910   27.2590 C.3    79  HIS79       0.1656
     94  C         -3.1900    8.5920   28.1530 C.2    79  HIS79       0.2291
     95  O         -4.2510    9.1640   27.7620 O.2    79  HIS79      -0.2864
     96  CB        -1.1160    9.7440   27.4530 C.3    79  HIS79       0.0771
     97  CG         0.1810    9.7160   26.6460 C.ar   79  HIS79       0.0820
     98  ND1        1.2240    8.8470   26.9080 N.ar   79  HIS79      -0.2267
     99  CD2        0.5980   10.4460   25.6040 C.ar   79  HIS79       0.1154
    100  CE1        2.2220    9.1080   26.0260 C.ar   79  HIS79       0.1986
    101  NE2        1.8700   10.1070   25.2190 N.ar   79  HIS79      -0.2212
    102  N         -2.7220   14.1640   30.6150 N.3    83  ARG83      -0.1231
    103  CA        -1.7570   15.1440   30.2220 C.3    83  ARG83       0.1694
    104  C         -2.2510   15.9910   29.0700 C.2    83  ARG83       0.2593
    105  O         -3.0800   15.5690   28.2110 O.2    83  ARG83      -0.2718
    106  CB        -0.4060   14.4570   29.8570 C.3    83  ARG83       0.0321
    107  CG        -0.4340   13.7650   28.5160 C.3    83  ARG83       0.0489
    108  CD         0.8760   13.0220   28.2880 C.3    83  ARG83       0.2205
    109  NE         1.0080   11.9260   29.2050 N.pl3  83  ARG83      -0.0865
    110  CZ         2.0680   11.1190   29.2370 C.cat  83  ARG83       0.5346
    111  NH1        3.0460   11.2380   28.3760 N.pl3  83  ARG83       0.1354
    112  NH2        2.1760   10.1450   30.1060 N.pl3  83  ARG83       0.1354
    113  N         -1.7680   17.1670   28.9150 N.am   84  THR84      -0.1939
    114  CA        -2.0160   18.1140   27.8520 C.3    84  THR84       0.2028
    115  C         -0.7040   18.6400   27.3790 C.2    84  THR84       0.2642
    116  O          0.3830   18.5050   27.9950 O.2    84  THR84      -0.2714
    117  CB        -2.8890   19.2810   28.3530 C.3    84  THR84       0.1808
    118  OG1       -2.2370   20.0370   29.2590 O.3    84  THR84      -0.2208
    119  CG2       -4.1350   18.7050   29.1320 C.3    84  THR84       0.0379
    120  N         -0.7810   19.3280   26.2460 N.am   85  SER85      -0.1949
    121  CA         0.4470   20.0240   25.7660 C.3    85  SER85       0.1924
    122  C          0.8610   21.0220   26.7550 C.2    85  SER85       0.2314
    123  O          2.0720   21.1410   26.9900 O.2    85  SER85      -0.2863
    124  CB         0.2200   20.5270   24.3630 C.3    85  SER85       0.2116
    125  OG        -0.8700   21.5460   24.3440 O.3    85  SER85      -0.2180
    126  N          2.8910   19.5210   29.6480 N.3    88  VAL88      -0.1245
    127  CA         4.1930   19.0890   29.2850 C.3    88  VAL88       0.1561
    128  C          5.1260   20.2270   28.9030 C.2    88  VAL88       0.2260
    129  O          6.2960   20.2800   29.2560 O.2    88  VAL88      -0.2867
    130  CB         4.1190   17.9760   28.1740 C.3    88  VAL88       0.0252
    131  CG1        5.4600   17.7010   27.5610 C.3    88  VAL88       0.0019
    132  CG2        3.5570   16.7190   28.8250 C.3    88  VAL88       0.0019
@<TRIPOS>BOND
     1    46    47    1
     2    52    51   ar
     3    51    53   ar
     4    51    50    1
     5    41    40    2
     6    47    50    1
     7    47    48    1
     8    40    39    1
     9    56    57    2
    10    56    55    1
    11    54    48   am
    12    54    55    1
    13    48    49    2
    14    39    38    1
    15    39    42    1
    16    55    58    1
    17    33    32    2
    18    38    32   am
    19    42    43    1
    20    32    31    1
    21    58    59    1
    22    30    31    1
    23    65    66    1
    24    65    64    1
    25    66    60    1
    26    31    34    1
    27    45    43    1
    28    23    22    2
    29    43    44    1
    30    60    61    1
    31    64    61    1
    32    22    21    1
    33    61    62    1
    34    34    35    1
    35    24    21    1
    36    24    25    1
    37    36    35    2
    38    21    20    1
    39    35    37   am
    40    62    67   am
    41    62    63    2
    42    85    84    1
    43    25    27   ar
    44    25    26   ar
    45    67    68    1
    46    20    15   am
    47    84    81    1
    48    91    90    1
    49    27    29   ar
    50    26    28   ar
    51    70    69    2
    52    15    16    2
    53    15    14    1
    54     9     8    2
    55    11    10    1
    56     8     7    1
    57    72    71    1
    58    68    69    1
    59    68    71    1
    60    28    29   ar
    61    81    82    1
    62    81    80    1
    63    69    74   am
    64    83    82    2
    65    13    14    1
    66    13    19    1
    67    73    71    1
    68    10     7    1
    69    10    12    1
    70    90    87    1
    71    82    86   am
    72    14    17    1
    73     7     6    1
    74    86    87    1
    75    19    18    2
    76    87    88    1
    77     6     3   am
    78     1     2    1
    79    74    75    1
    80    75    76    1
    81    75    78    1
    82    17    18    1
    83   125   124    1
    84   124   121    1
    85     3     2    1
    86     3     4    2
    87    76    77    2
    88     2     5    1
    89    79    78    1
    90    88    89    2
    91    88    92   am
    92   101    99   ar
    93   101   100   ar
    94    99    97   ar
    95   121   120    1
    96   121   122    1
    97    92    93    1
    98   100    98   ar
    99   120   115   am
   100    97    98   ar
   101    97    96    1
   102   122   123    2
   103    93    96    1
   104    93    94    1
   105   115   114    1
   106   115   116    2
   107   131   130    1
   108    95    94    2
   109   114   117    1
   110   114   113    1
   111   130   132    1
   112   130   127    1
   113   105   104    2
   114   108   107    1
   115   108   109    1
   116   117   119    1
   117   117   118    1
   118   111   110    1
   119   107   106    1
   120   128   129    2
   121   128   127    1
   122   113   104   am
   123   104   103    1
   124   109   110    2
   125   110   112    1
   126   127   126    1
   127   106   103    1
   128   103   102    1
