@<TRIPOS>MOLECULE
tmp/1m1rA02.pdb
 141 133 0 0 0
SMALL
GASTEIGER

@<TRIPOS>ATOM
      1  N         -5.9360   22.4500    7.9550 N.3     5  LEU5       -0.1245
      2  CA        -4.4970   22.5130    7.7380 C.3     5  LEU5        0.1561
      3  C         -4.0750   21.9840    6.4090 C.2     5  LEU5        0.2260
      4  O         -3.1540   22.5210    5.7540 O.2     5  LEU5       -0.2867
      5  CB        -3.8920   21.8000    8.9150 C.3     5  LEU5        0.0270
      6  CG        -2.5340   21.8840    9.2900 C.3     5  LEU5        0.0019
      7  CD1       -2.0610   23.4030    9.4420 C.3     5  LEU5        0.0001
      8  CD2       -2.2420   21.3000   10.6840 C.3     5  LEU5        0.0001
      9  N         -4.7240   24.7440    3.8520 N.3     8  PHE8       -0.1227
     10  CA        -3.7840   25.8480    4.0350 C.3     8  PHE8        0.1736
     11  C         -2.4720   25.5280    3.3330 C.2     8  PHE8        0.2595
     12  O         -1.8960   26.3260    2.5800 O.2     8  PHE8       -0.2718
     13  CB        -3.5420   25.9890    5.5510 C.3     8  PHE8        0.0547
     14  CG        -2.3490   26.9110    5.8050 C.ar    8  PHE8       -0.0202
     15  CD1       -2.2800   28.2700    5.4490 C.ar    8  PHE8       -0.0042
     16  CD2       -1.2600   26.3580    6.4900 C.ar    8  PHE8       -0.0042
     17  CE1       -1.1870   29.0760    5.7150 C.ar    8  PHE8       -0.0003
     18  CE2       -0.1460   27.1730    6.8250 C.ar    8  PHE8       -0.0003
     19  CZ        -0.1150   28.5090    6.4400 C.ar    8  PHE8       -0.0000
     20  N         -1.9540   24.2880    3.5360 N.am    9  HIS9       -0.1975
     21  CA        -0.7350   23.9050    2.8650 C.3     9  HIS9        0.1656
     22  C         -0.9100   23.8100    1.3520 C.2     9  HIS9        0.2291
     23  O         -0.0050   24.1710    0.5940 O.2     9  HIS9       -0.2864
     24  CB        -0.2240   22.5990    3.4360 C.3     9  HIS9        0.0771
     25  CG         0.3930   22.6070    4.7930 C.ar    9  HIS9        0.0820
     26  ND1       -0.3410   22.5220    5.9610 N.ar    9  HIS9       -0.2267
     27  CD2        1.6650   22.6450    5.1870 C.ar    9  HIS9        0.1154
     28  CE1        0.5210   22.5230    6.9970 C.ar    9  HIS9        0.1986
     29  NE2        1.7510   22.5700    6.5590 N.ar    9  HIS9       -0.2212
     30  N         -0.1110   26.6820   -0.9310 N.3    12  SER12      -0.1217
     31  CA         1.2780   26.9830   -1.1010 C.3    12  SER12       0.1889
     32  C          2.0340   25.7040   -1.4630 C.2    12  SER12       0.2288
     33  O          2.7990   25.1710   -0.7140 O.2    12  SER12      -0.2866
     34  CB         1.8930   27.5150    0.2080 C.3    12  SER12       0.2089
     35  OG         1.4570   28.7800    0.4810 O.3    12  SER12      -0.2183
     36  N          2.2960   19.0250   -2.4050 N.3    17  SER17      -0.1202
     37  CA         3.2390   19.4530   -1.3650 C.3    17  SER17       0.2020
     38  C          3.4800   18.3120   -0.3870 C.2    17  SER17       0.2619
     39  O          4.5690   18.2120    0.2020 O.2    17  SER17      -0.2717
     40  CB         2.6410   20.6160   -0.5770 C.3    17  SER17       0.2103
     41  OG         3.6410   21.2710    0.2080 O.3    17  SER17      -0.2182
     42  N          2.4360   17.4910   -0.1760 N.am   18  CYS18      -0.1969
     43  CA         2.5730   16.3710    0.7770 C.3    18  CYS18       0.1712
     44  C          2.4000   15.0010    0.1000 C.2    18  CYS18       0.2296
     45  O          2.8860   14.0240    0.6980 O.2    18  CYS18      -0.2864
     46  CB         1.5150   16.4920    1.8510 C.3    18  CYS18       0.0983
     47  SG         1.7950   17.9540    2.8570 S.3    18  CYS18      -0.0798
     48  N          4.4110   10.9920    3.0400 N.3    31  GLU31      -0.1245
     49  CA         3.8600   12.2350    3.6140 C.3    31  GLU31       0.1567
     50  C          4.7170   12.6560    4.8420 C.2    31  GLU31       0.2260
     51  O          4.9760   13.8460    4.9790 O.2    31  GLU31      -0.2867
     52  CB         2.4010   11.9620    4.0510 C.3    31  GLU31       0.0388
     53  CG         1.4540   11.8560    2.8370 C.3    31  GLU31       0.1160
     54  CD         1.4360   10.5380    2.0900 C.2    31  GLU31       0.3649
     55  OE1        2.0690    9.5480    2.5350 O.co2  31  GLU31      -0.2457
     56  OE2        0.7850   10.4770    1.0200 O.co2  31  GLU31      -0.2457
     57  N          7.6790   14.3700    3.6810 N.3    34  GLN34      -0.1231
     58  CA         7.3960   15.7030    3.2660 C.3    34  GLN34       0.1698
     59  C          7.2640   16.6510    4.4810 C.2    34  GLN34       0.2592
     60  O          7.7940   17.7500    4.4550 O.2    34  GLN34      -0.2718
     61  CB         6.0790   15.8070    2.4250 C.3    34  GLN34       0.0381
     62  CG         6.2010   15.0950    1.0530 C.3    34  GLN34       0.0905
     63  CD         7.0710   15.8740    0.0640 C.2    34  GLN34       0.2608
     64  OE1        8.1140   16.4000    0.4050 O.2    34  GLN34      -0.2717
     65  NE2        6.6680   15.9090   -1.1700 N.am   34  GLN34      -0.0878
     66  N          6.5170   16.2720    5.5260 N.am   35  CYS35      -0.1970
     67  CA         6.3810   17.1620    6.6630 C.3    35  CYS35       0.1712
     68  C          7.7770   17.5760    7.1960 C.2    35  CYS35       0.2296
     69  O          8.0060   18.7230    7.4690 O.2    35  CYS35      -0.2864
     70  CB         5.6520   16.5720    7.8690 C.3    35  CYS35       0.0983
     71  SG         4.0910   15.6880    7.5860 S.3    35  CYS35      -0.0798
     72  N         10.6040   17.5250    5.6350 N.3    37  SER37      -0.1202
     73  CA        11.4210   18.2660    4.6590 C.3    37  SER37       0.2020
     74  C         11.2990   19.7550    4.8240 C.2    37  SER37       0.2619
     75  O         12.2590   20.4970    4.5750 O.2    37  SER37      -0.2717
     76  CB        11.0920   17.8290    3.2590 C.3    37  SER37       0.2103
     77  OG         9.8730   18.3900    2.7920 O.3    37  SER37      -0.2182
     78  N         10.1520   20.2260    5.3170 N.am   38  CYS38      -0.1955
     79  CA         9.9420   21.6200    5.6070 C.3    38  CYS38       0.1843
     80  C         10.1250   21.9560    7.0650 C.2    38  CYS38       0.2625
     81  O         10.6760   23.0350    7.3810 O.2    38  CYS38      -0.2714
     82  CB         8.5590   22.0690    5.1490 C.3    38  CYS38       0.0997
     83  SG         8.3570   21.8530    3.3840 S.3    38  CYS38      -0.0797
     84  N          9.6430   21.1500    8.0100 N.am   39  HIS39      -0.1973
     85  CA         9.5720   21.4700    9.4070 C.3    39  HIS39       0.1656
     86  C         10.7340   20.9250   10.2580 C.2    39  HIS39       0.2291
     87  O         10.8610   21.3600   11.4020 O.2    39  HIS39      -0.2864
     88  CB         8.2560   20.8950    9.9970 C.3    39  HIS39       0.0771
     89  CG         7.0450   21.6420    9.5770 C.ar   39  HIS39       0.0820
     90  ND1        6.6860   22.8720   10.0960 N.ar   39  HIS39      -0.2267
     91  CD2        6.0270   21.3370    8.6880 C.ar   39  HIS39       0.1154
     92  CE1        5.5360   23.2550    9.5740 C.ar   39  HIS39       0.1986
     93  NE2        5.0970   22.3760    8.6900 N.ar   39  HIS39      -0.2212
     94  N          4.1500   12.5290   12.1680 N.3    58  CYS58      -0.1221
     95  CA         3.4360   13.7460   12.4810 C.3    58  CYS58       0.1808
     96  C          1.9120   13.5160   12.4690 C.2    58  CYS58       0.2601
     97  O          1.1890   14.0330   13.3470 O.2    58  CYS58      -0.2717
     98  CB         3.7260   14.8830   11.5180 C.3    58  CYS58       0.0970
     99  SG         5.4520   15.1370   11.0970 S.3    58  CYS58      -0.0800
    100  N          1.4240   12.7680   11.5070 N.am   59  ALA59      -0.1979
    101  CA         0.0210   12.5030   11.2980 C.3    59  ALA59       0.1597
    102  C         -0.6090   11.6870   12.3990 C.2    59  ALA59       0.2287
    103  O         -1.8560   11.5920   12.5060 O.2    59  ALA59      -0.2864
    104  CB        -0.2150   11.8020    9.9550 C.3    59  ALA59       0.0319
    105  N         -1.2900   15.2640   14.3050 N.3    62  HIS62      -0.1241
    106  CA        -1.8520   16.2780   13.4310 C.3    62  HIS62       0.1621
    107  C         -2.6570   15.5830   12.3680 C.2    62  HIS62       0.2264
    108  O         -2.1110   15.0270   11.4270 O.2    62  HIS62      -0.2867
    109  CB        -0.7590   17.1560   12.8140 C.3    62  HIS62       0.0745
    110  CG         0.0180   17.9710   13.7790 C.ar   62  HIS62       0.0817
    111  ND1       -0.4350   19.1070   14.3310 N.ar   62  HIS62      -0.2268
    112  CD2        1.3000   17.8100   14.2820 C.ar   62  HIS62       0.1154
    113  CE1        0.4980   19.6370   15.1380 C.ar   62  HIS62       0.1986
    114  NE2        1.5790   18.8380   15.1200 N.ar   62  HIS62      -0.2212
    115  N         -4.3160   16.4660    9.5030 N.3    64  VAL64      -0.1245
    116  CA        -4.3210   17.7540    8.8240 C.3    64  VAL64       0.1561
    117  C         -5.5310   17.9850    8.0120 C.2    64  VAL64       0.2260
    118  O         -5.8830   19.1740    7.7900 O.2    64  VAL64      -0.2867
    119  CB        -3.0460   17.9850    7.9540 C.3    64  VAL64       0.0252
    120  CG1       -1.8000   17.9670    8.8370 C.3    64  VAL64       0.0019
    121  CG2       -2.9170   16.9340    6.8470 C.3    64  VAL64       0.0019
    122  N         -6.6370   24.9720   10.8290 N.3    69  VAL69      -0.1231
    123  CA        -5.4090   25.7180   11.1820 C.3    69  VAL69       0.1692
    124  C         -5.5360   26.2380   12.6340 C.2    69  VAL69       0.2592
    125  O         -6.6800   26.7170   13.0080 O.2    69  VAL69      -0.2718
    126  CB        -5.2080   26.8980   10.1870 C.3    69  VAL69       0.0266
    127  CG1       -3.9890   27.7290   10.5670 C.3    69  VAL69       0.0020
    128  CG2       -4.9910   26.3960    8.7820 C.3    69  VAL69       0.0020
    129  N         -4.6390   26.2360   13.5560 N.am   70  GLY70      -0.1957
    130  CA        -5.0380   26.8070   14.8220 C.3    70  GLY70       0.1869
    131  C         -5.3580   25.7190   15.8160 C.2    70  GLY70       0.2309
    132  O         -5.1780   25.8950   17.0300 O.2    70  GLY70      -0.2863
    133  N         -4.9520   22.3030   17.8410 N.3    72  LYS72      -0.1245
    134  CA        -3.8050   21.4400   17.9860 C.3    72  LYS72       0.1561
    135  C         -4.3180   20.1480   18.6120 C.2    72  LYS72       0.2260
    136  O         -5.3460   19.9340   19.2550 O.2    72  LYS72      -0.2867
    137  CB        -2.8500   22.1370   18.9190 C.3    72  LYS72       0.0271
    138  CG        -2.1880   23.3780   18.1670 C.3    72  LYS72       0.0035
    139  CD        -1.1360   22.9190   17.0790 C.3    72  LYS72       0.0206
    140  CE        -0.2940   23.9400   16.3090 C.3    72  LYS72       0.1093
    141  NZ        -1.1370   25.1420   15.8880 N.3    72  LYS72      -0.1314
@<TRIPOS>BOND
     1    36    37    1
     2    32    31    1
     3    32    33    2
     4    37    40    1
     5    37    38    1
     6    65    63   am
     7    31    30    1
     8    31    34    1
     9    40    41    1
    10    38    42   am
    11    38    39    2
    12    42    43    1
    13    63    64    2
    14    63    62    1
    15    44    45    2
    16    44    43    1
    17    34    35    1
    18    23    22    2
    19    43    46    1
    20    56    54   ar
    21    62    61    1
    22    22    21    1
    23    46    47    1
    24    54    55   ar
    25    54    53    1
    26    61    58    1
    27    12    11    2
    28    77    76    1
    29    53    52    1
    30    21    24    1
    31    21    20    1
    32    48    49    1
    33    76    73    1
    34    58    57    1
    35    58    59    1
    36    11    20   am
    37    11    10    1
    38    83    82    1
    39    24    25    1
    40    49    52    1
    41    49    50    1
    42     9    10    1
    43    10    13    1
    44    60    59    2
    45    59    66   am
    46    75    74    2
    47    73    74    1
    48    73    72    1
    49    25    27   ar
    50    25    26   ar
    51    74    78   am
    52    50    51    2
    53    82    79    1
    54    27    29   ar
    55    78    79    1
    56    15    17   ar
    57    15    14   ar
    58    66    67    1
    59    13    14    1
    60    79    80    1
    61    17    19   ar
    62     4     3    2
    63    14    16   ar
    64    26    28   ar
    65     3     2    1
    66    19    18   ar
    67    16    18   ar
    68    29    28   ar
    69    67    68    1
    70    67    70    1
    71   121   119    1
    72    80    81    2
    73    80    84   am
    74    68    69    2
    75    71    70    1
    76     2     1    1
    77     2     5    1
    78   118   117    2
    79   119   116    1
    80   119   120    1
    81    84    85    1
    82   117   116    1
    83    91    93   ar
    84    91    89   ar
    85    93    92   ar
    86   128   126    1
    87   116   115    1
    88     5     6    1
    89     6     7    1
    90     6     8    1
    91    85    88    1
    92    85    86    1
    93    92    90   ar
    94    89    88    1
    95    89    90   ar
    96   104   101    1
    97   126   127    1
    98   126   123    1
    99    86    87    2
   100   122   123    1
   101    99    98    1
   102   123   124    1
   103   101   100    1
   104   101   102    1
   105   108   107    2
   106   100    96   am
   107    98    95    1
   108    94    95    1
   109   107   106    1
   110   102   103    2
   111    96    95    1
   112    96    97    2
   113   124   125    2
   114   124   129   am
   115   109   106    1
   116   109   110    1
   117   106   105    1
   118   129   130    1
   119   110   112   ar
   120   110   111   ar
   121   112   114   ar
   122   111   113   ar
   123   130   131    1
   124   114   113   ar
   125   131   132    2
   126   141   140    1
   127   140   139    1
   128   139   138    1
   129   133   134    1
   130   134   135    1
   131   134   137    1
   132   138   137    1
   133   135   136    2
