@<TRIPOS>MOLECULE
tmp/1m1rA03.pdb
 171 165 0 0 0
SMALL
GASTEIGER

@<TRIPOS>ATOM
      1  N          5.0700   11.7040    5.7190 N.3    32  PHE32      -0.1241
      2  CA         5.8890   12.0640    6.8800 C.3    32  PHE32       0.1605
      3  C          7.2080   12.6790    6.4290 C.2    32  PHE32       0.2264
      4  O          7.7060   13.6460    7.0480 O.2    32  PHE32      -0.2867
      5  CB         6.1480   10.8050    7.7080 C.3    32  PHE32       0.0534
      6  CG         7.0390   10.9540    8.9110 C.ar   32  PHE32      -0.0203
      7  CD1        6.8760   12.0290    9.7960 C.ar   32  PHE32      -0.0042
      8  CD2        8.0220   10.0140    9.1740 C.ar   32  PHE32      -0.0042
      9  CE1        7.6560   12.1190   10.9460 C.ar   32  PHE32      -0.0003
     10  CE2        8.8080   10.1120   10.3390 C.ar   32  PHE32      -0.0003
     11  CZ         8.6520   11.1610   11.2520 C.ar   32  PHE32      -0.0000
     12  N          6.5170   16.2720    5.5260 N.3    35  CYS35      -0.1221
     13  CA         6.3810   17.1620    6.6630 C.3    35  CYS35       0.1808
     14  C          7.7770   17.5760    7.1960 C.2    35  CYS35       0.2601
     15  O          8.0060   18.7230    7.4690 O.2    35  CYS35      -0.2717
     16  CB         5.6520   16.5720    7.8690 C.3    35  CYS35       0.0970
     17  SG         4.0910   15.6880    7.5860 S.3    35  CYS35      -0.0800
     18  N          8.6460   16.5720    7.3560 N.am   36  GLN36      -0.1979
     19  CA         9.9580   16.8170    7.9080 C.3    36  GLN36       0.1601
     20  C         10.8560   17.6500    6.9380 C.2    36  GLN36       0.2287
     21  O         11.7270   18.3980    7.3920 O.2    36  GLN36      -0.2864
     22  CB        10.6380   15.5240    8.1880 C.3    36  GLN36       0.0394
     23  CG        10.0040   14.6960    9.3310 C.3    36  GLN36       0.0908
     24  CD        10.7420   13.3890    9.4550 C.2    36  GLN36       0.2608
     25  OE1       11.6550   13.2280   10.2470 O.2    36  GLN36      -0.2717
     26  NE2       10.3590   12.4560    8.5780 N.am   36  GLN36      -0.0878
     27  N          9.6430   21.1500    8.0100 N.3    39  HIS39      -0.1226
     28  CA         9.5720   21.4700    9.4070 C.3    39  HIS39       0.1752
     29  C         10.7340   20.9250   10.2580 C.2    39  HIS39       0.2596
     30  O         10.8610   21.3600   11.4020 O.2    39  HIS39      -0.2718
     31  CB         8.2560   20.8950    9.9970 C.3    39  HIS39       0.0759
     32  CG         7.0450   21.6420    9.5770 C.ar   39  HIS39       0.0818
     33  ND1        6.6860   22.8720   10.0960 N.ar   39  HIS39      -0.2268
     34  CD2        6.0270   21.3370    8.6880 C.ar   39  HIS39       0.1154
     35  CE1        5.5360   23.2550    9.5740 C.ar   39  HIS39       0.1986
     36  NE2        5.0970   22.3760    8.6900 N.ar   39  HIS39      -0.2212
     37  N         11.5160   20.0570    9.7250 N.am   40  GLY40      -0.1957
     38  CA        12.5570   19.3470   10.4600 C.3    40  GLY40       0.1869
     39  C         12.0570   18.1590   11.2310 C.2    40  GLY40       0.2309
     40  O         10.9590   17.6760   11.0380 O.2    40  GLY40      -0.2863
     41  N         11.4540   15.6270   14.6860 N.3    42  LEU42      -0.1245
     42  CA        10.8590   15.6650   16.0300 C.3    42  LEU42       0.1561
     43  C         11.8890   15.9550   17.1260 C.2    42  LEU42       0.2260
     44  O         11.6190   16.6300   18.0990 O.2    42  LEU42      -0.2867
     45  CB        10.1770   14.3420   16.3200 C.3    42  LEU42       0.0270
     46  CG         8.8360   14.1720   15.5700 C.3    42  LEU42       0.0019
     47  CD1        8.3790   12.7130   15.6390 C.3    42  LEU42       0.0001
     48  CD2        7.7980   15.0830   16.1470 C.3    42  LEU42       0.0001
     49  N         12.4030   19.6160   17.8800 N.3    45  MET45      -0.1230
     50  CA        11.2220   20.3720   18.2480 C.3    45  MET45       0.1702
     51  C         11.0830   20.4710   19.7610 C.2    45  MET45       0.2592
     52  O         11.9950   20.1720   20.5090 O.2    45  MET45      -0.2718
     53  CB        10.0390   19.6670   17.5260 C.3    45  MET45       0.0401
     54  CG        10.0880   19.8810   16.0270 C.3    45  MET45       0.0596
     55  SD         8.6990   19.0280   15.2480 S.3    45  MET45      -0.1393
     56  CE         8.9630   19.5130   13.5250 C.3    45  MET45       0.0692
     57  N          9.9210   20.9370   20.2190 N.am   46  ASP46      -0.1974
     58  CA         9.7310   21.2440   21.6390 C.3    46  ASP46       0.1709
     59  C          9.4310   19.9930   22.4190 C.2    46  ASP46       0.2293
     60  O          9.4550   18.8710   21.9360 O.2    46  ASP46      -0.2864
     61  CB         8.6710   22.3190   21.7500 C.3    46  ASP46       0.1436
     62  CG         7.2540   21.8920   21.4420 C.2    46  ASP46       0.3671
     63  OD1        6.9930   20.6430   21.4810 O.co2  46  ASP46      -0.2456
     64  OD2        6.4170   22.7350   21.1210 O.co2  46  ASP46      -0.2456
     65  N          6.7630   18.6770   23.6870 N.3    48  VAL48      -0.1231
     66  CA         5.6400   17.8100   23.2580 C.3    48  VAL48       0.1692
     67  C          6.1190   16.8710   22.1730 C.2    48  VAL48       0.2592
     68  O          5.7050   15.7060   22.0860 O.2    48  VAL48      -0.2718
     69  CB         4.4930   18.6610   22.7710 C.3    48  VAL48       0.0266
     70  CG1        3.3790   17.8840   22.0910 C.3    48  VAL48       0.0020
     71  CG2        3.8390   19.4350   23.9100 C.3    48  VAL48       0.0020
     72  N          7.0130   17.3370   21.2940 N.am   49  HIS49      -0.1976
     73  CA         7.4340   16.6040   20.1230 C.3    49  HIS49       0.1656
     74  C          8.5560   15.6350   20.3760 C.2    49  HIS49       0.2291
     75  O          8.4960   14.4760   19.9130 O.2    49  HIS49      -0.2864
     76  CB         7.8380   17.6580   19.0150 C.3    49  HIS49       0.0771
     77  CG         6.6860   18.4150   18.4880 C.ar   49  HIS49       0.0820
     78  ND1        6.0870   19.4920   19.1380 N.ar   49  HIS49      -0.2267
     79  CD2        5.8960   18.2000   17.4000 C.ar   49  HIS49       0.1154
     80  CE1        5.0340   19.8840   18.4140 C.ar   49  HIS49       0.1986
     81  NE2        4.8620   19.1420   17.3680 N.ar   49  HIS49      -0.2212
     82  N          8.4320   11.7520   21.0130 N.3    52  HIS52      -0.1241
     83  CA         7.8210   10.9570   19.9720 C.3    52  HIS52       0.1621
     84  C          8.7530   10.6220   18.8020 C.2    52  HIS52       0.2264
     85  O          8.3870    9.8580   17.9380 O.2    52  HIS52      -0.2867
     86  CB         6.5400   11.6860   19.5040 C.3    52  HIS52       0.0745
     87  CG         5.6110   11.9030   20.6810 C.ar   52  HIS52       0.0817
     88  ND1        5.5240   13.0670   21.3860 N.ar   52  HIS52      -0.2268
     89  CD2        4.8160   11.0430   21.3240 C.ar   52  HIS52       0.1154
     90  CE1        4.6940   12.9170   22.3980 C.ar   52  HIS52       0.1986
     91  NE2        4.2260   11.7010   22.4140 N.ar   52  HIS52      -0.2212
     92  N          6.4690    8.0070   16.5560 N.3    56  LEU56      -0.1231
     93  CA         5.3160    8.4890   15.8290 C.3    56  LEU56       0.1693
     94  C          5.7530    9.1830   14.5200 C.2    56  LEU56       0.2592
     95  O          6.8600    9.6950   14.4140 O.2    56  LEU56      -0.2718
     96  CB         4.5150    9.5160   16.6700 C.3    56  LEU56       0.0284
     97  CG         3.9210    8.9880   17.9600 C.3    56  LEU56       0.0019
     98  CD1        2.9880   10.0720   18.5550 C.3    56  LEU56       0.0001
     99  CD2        3.2230    7.6360   17.8170 C.3    56  LEU56       0.0001
    100  N          4.7940    9.2840   13.6230 N.am   57  VAL57      -0.1966
    101  CA         4.8750   10.2160   12.5430 C.3    57  VAL57       0.1727
    102  C          3.9810   11.4040   12.8680 C.2    57  VAL57       0.2616
    103  O          3.1050   11.3610   13.7540 O.2    57  VAL57      -0.2715
    104  CB         4.4720    9.5890   11.1810 C.3    57  VAL57       0.0290
    105  CG1        5.3610    8.4320   10.8800 C.3    57  VAL57       0.0023
    106  CG2        2.9980    9.2090   11.1810 C.3    57  VAL57       0.0023
    107  N          4.1500   12.5290   12.1680 N.am   58  CYS58      -0.1968
    108  CA         3.4360   13.7460   12.4810 C.3    58  CYS58       0.1712
    109  C          1.9120   13.5160   12.4690 C.2    58  CYS58       0.2296
    110  O          1.1890   14.0330   13.3470 O.2    58  CYS58      -0.2864
    111  CB         3.7260   14.8830   11.5180 C.3    58  CYS58       0.0983
    112  SG         5.4520   15.1370   11.0970 S.3    58  CYS58      -0.0798
    113  N         -0.6490   12.6290   15.3880 N.3    61  CYS61      -0.1221
    114  CA        -1.2390   13.7010   16.1800 C.3    61  CYS61       0.1808
    115  C         -1.9580   14.7050   15.3190 C.2    61  CYS61       0.2601
    116  O         -3.1050   15.0830   15.5980 O.2    61  CYS61      -0.2717
    117  CB        -0.1610   14.3960   17.0220 C.3    61  CYS61       0.0970
    118  SG         0.5200   13.3140   18.2810 S.3    61  CYS61      -0.0800
    119  N         -1.2900   15.2640   14.3050 N.am   62  HIS62      -0.1975
    120  CA        -1.8520   16.2780   13.4310 C.3    62  HIS62       0.1656
    121  C         -2.6570   15.5830   12.3680 C.2    62  HIS62       0.2291
    122  O         -2.1110   15.0270   11.4270 O.2    62  HIS62      -0.2864
    123  CB        -0.7590   17.1560   12.8140 C.3    62  HIS62       0.0771
    124  CG         0.0180   17.9710   13.7790 C.ar   62  HIS62       0.0820
    125  ND1       -0.4350   19.1070   14.3310 N.ar   62  HIS62      -0.2267
    126  CD2        1.3000   17.8100   14.2820 C.ar   62  HIS62       0.1154
    127  CE1        0.4980   19.6370   15.1380 C.ar   62  HIS62       0.1986
    128  NE2        1.5790   18.8380   15.1200 N.ar   62  HIS62      -0.2212
    129  N         -4.9520   22.3030   17.8410 N.3    72  LYS72      -0.1231
    130  CA        -3.8050   21.4400   17.9860 C.3    72  LYS72       0.1678
    131  C         -4.3180   20.1480   18.6120 C.2    72  LYS72       0.2434
    132  O         -5.3460   19.9340   19.2550 O.2    72  LYS72      -0.2733
    133  CB        -2.8500   22.1370   18.9190 C.3    72  LYS72       0.0284
    134  CG        -2.1880   23.3780   18.1670 C.3    72  LYS72       0.0035
    135  CD        -1.1360   22.9190   17.0790 C.3    72  LYS72       0.0206
    136  CE        -0.2940   23.9400   16.3090 C.3    72  LYS72       0.1093
    137  NZ        -1.1370   25.1420   15.8880 N.3    72  LYS72      -0.1314
    138  N         -3.4800   19.1540   18.4450 N.am   73  PRO73      -0.2718
    139  CA        -3.7640   17.8200   18.9200 C.3    73  PRO73       0.1535
    140  C         -3.8370   17.7800   20.4910 C.2    73  PRO73       0.2599
    141  O         -3.1620   18.5190   21.1620 O.2    73  PRO73      -0.2715
    142  CB        -2.5290   17.0020   18.4980 C.3    73  PRO73       0.0310
    143  CG        -2.0250   17.7210   17.2800 C.3    73  PRO73       0.0237
    144  CD        -2.2170   19.1850   17.5930 C.3    73  PRO73       0.0939
    145  N         -4.6630   16.8630   20.9550 N.am   74  THR74      -0.1937
    146  CA        -4.7460   16.4860   22.3340 C.3    74  THR74       0.2028
    147  C         -4.1590   15.0990   22.5450 C.2    74  THR74       0.2642
    148  O         -3.6200   14.4890   21.5910 O.2    74  THR74      -0.2714
    149  CB        -6.1620   16.5570   22.8860 C.3    74  THR74       0.1808
    150  OG1       -6.9850   15.6470   22.1810 O.3    74  THR74      -0.2208
    151  CG2       -6.6810   17.9860   22.7620 C.3    74  THR74       0.0379
    152  N         -4.1360   14.5990   23.7730 N.am   75  CYS75      -0.1967
    153  CA        -3.2620   13.5130   24.1730 C.3    75  CYS75       0.1712
    154  C         -3.9520   12.2530   24.6170 C.2    75  CYS75       0.2296
    155  O         -3.3220   11.2120   24.8360 O.2    75  CYS75      -0.2864
    156  CB        -2.2960   13.9820   25.2990 C.3    75  CYS75       0.0983
    157  SG        -1.5920   15.6230   24.9880 S.3    75  CYS75      -0.0798
    158  N         -0.7810   19.3280   26.2460 N.3    85  SER85      -0.1217
    159  CA         0.4470   20.0240   25.7660 C.3    85  SER85       0.1889
    160  C          0.8610   21.0220   26.7550 C.2    85  SER85       0.2288
    161  O          2.0720   21.1410   26.9900 O.2    85  SER85      -0.2866
    162  CB         0.2200   20.5270   24.3630 C.3    85  SER85       0.2089
    163  OG        -0.8700   21.5460   24.3440 O.3    85  SER85      -0.2183
    164  N          4.6860   21.2340   28.1220 N.3    89  LEU89      -0.1245
    165  CA         5.5050   22.3590   27.7560 C.3    89  LEU89       0.1561
    166  C          5.9460   23.2120   28.9310 C.2    89  LEU89       0.2260
    167  O          7.0230   23.7450   28.9990 O.2    89  LEU89      -0.2867
    168  CB         4.7020   23.2840   26.8050 C.3    89  LEU89       0.0270
    169  CG         4.5490   22.7660   25.4100 C.3    89  LEU89       0.0019
    170  CD1        3.6220   23.6820   24.6420 C.3    89  LEU89       0.0001
    171  CD2        5.8230   22.6040   24.6750 C.3    89  LEU89       0.0001
@<TRIPOS>BOND
     1    12    13    1
     2     1     2    1
     3     3     2    1
     4     3     4    2
     5    13    14    1
     6    13    16    1
     7     2     5    1
     8    20    21    2
     9    20    19    1
    10    14    18   am
    11    14    15    2
    12    18    19    1
    13    17    16    1
    14     5     6    1
    15    19    22    1
    16    27    28    1
    17    22    23    1
    18    26    24   am
    19    34    36   ar
    20    34    32   ar
    21    36    35   ar
    22     6     8   ar
    23     6     7   ar
    24     8    10   ar
    25    23    24    1
    26    28    31    1
    27    28    29    1
    28    24    25    2
    29    35    33   ar
    30    32    31    1
    31    32    33   ar
    32    37    29   am
    33    37    38    1
    34     7     9   ar
    35    29    30    2
    36    10    11   ar
    37    38    39    1
    38   105   104    1
    39     9    11   ar
    40    40    39    2
    41   112   111    1
    42   104   106    1
    43   104   101    1
    44   122   121    2
    45   111   108    1
    46   107   108    1
    47   107   102   am
    48   121   120    1
    49   109   108    1
    50   109   110    2
    51   101   102    1
    52   101   100    1
    53   123   120    1
    54   123   124    1
    55   102   103    2
    56   120   119    1
    57    56    55    1
    58   100    94   am
    59   124   126   ar
    60   124   125   ar
    61   126   128   ar
    62   119   115   am
    63   125   127   ar
    64    95    94    2
    65    94    93    1
    66    41    42    1
    67   128   127   ar
    68    55    54    1
    69   115   116    2
    70   115   114    1
    71   113   114    1
    72    46    47    1
    73    46    48    1
    74    46    45    1
    75    93    92    1
    76    93    96    1
    77   137   136    1
    78    54    53    1
    79    42    45    1
    80    42    43    1
    81   114   117    1
    82   136   135    1
    83    96    97    1
    84   117   118    1
    85   135   134    1
    86    43    44    2
    87   143   144    1
    88   143   142    1
    89    81    79   ar
    90    81    80   ar
    91    79    77   ar
    92    53    50    1
    93   144   138    1
    94    99    97    1
    95   129   130    1
    96    49    50    1
    97    85    84    2
    98    97    98    1
    99   130   131    1
   100   130   133    1
   101   134   133    1
   102    50    51    1
   103    80    78   ar
   104   138   131   am
   105   138   139    1
   106    77    76    1
   107    77    78   ar
   108   142   139    1
   109   131   132    2
   110    84    83    1
   111   139   140    1
   112    76    73    1
   113    86    83    1
   114    86    87    1
   115    51    57   am
   116    51    52    2
   117    75    74    2
   118    83    82    1
   119    73    74    1
   120    73    72    1
   121    57    58    1
   122   140   145   am
   123   140   141    2
   124    87    89   ar
   125    87    88   ar
   126   145   146    1
   127    64    62   ar
   128    72    67   am
   129    89    91   ar
   130    88    90   ar
   131    62    63   ar
   132    62    61    1
   133   148   147    2
   134    58    61    1
   135    58    59    1
   136    60    59    2
   137    68    67    2
   138    70    69    1
   139    67    66    1
   140   150   149    1
   141   146   147    1
   142   146   149    1
   143    90    91   ar
   144   147   152   am
   145   151   149    1
   146    69    66    1
   147    69    71    1
   148    66    65    1
   149   152   153    1
   150   153   154    1
   151   153   156    1
   152   163   162    1
   153   162   159    1
   154   154   155    2
   155   170   169    1
   156   171   169    1
   157   157   156    1
   158   169   168    1
   159   159   158    1
   160   159   160    1
   161   160   161    2
   162   168   165    1
   163   165   164    1
   164   165   166    1
   165   166   167    2
