@<TRIPOS>MOLECULE
tmp/1m1rA00.pdb
 115 110 0 0 0
SMALL
GASTEIGER

@<TRIPOS>ATOM
      1  N         -4.7070   20.9100    5.8880 N.3     6  SER6       -0.1202
      2  CA        -4.3770   20.3900    4.5620 C.3     6  SER6        0.2020
      3  C         -4.5790   21.4190    3.4880 C.2     6  SER6        0.2618
      4  O         -3.7540   21.6490    2.5960 O.2     6  SER6       -0.2717
      5  CB        -5.1610   19.1280    4.2850 C.3     6  SER6        0.2103
      6  OG        -6.5500   19.4100    4.4550 O.3     6  SER6       -0.2182
      7  N         -5.7160   22.1430    3.5750 N.am    7  ASP7       -0.1973
      8  CA        -6.0630   23.1590    2.6130 C.3     7  ASP7        0.1709
      9  C         -5.1700   24.3260    2.6300 C.2     7  ASP7        0.2293
     10  O         -4.7600   24.9010    1.6170 O.2     7  ASP7       -0.2864
     11  CB        -7.5540   23.5320    2.7390 C.3     7  ASP7        0.1436
     12  CG        -8.4990   22.4040    2.4390 C.2     7  ASP7        0.3671
     13  OD1       -8.2460   21.7660    1.4160 O.co2   7  ASP7       -0.2456
     14  OD2       -9.3370   22.2330    3.2370 O.co2   7  ASP7       -0.2456
     15  N         -1.9540   24.2880    3.5360 N.3     9  HIS9       -0.1226
     16  CA        -0.7350   23.9050    2.8650 C.3     9  HIS9        0.1752
     17  C         -0.9100   23.8100    1.3520 C.2     9  HIS9        0.2595
     18  O         -0.0050   24.1710    0.5940 O.2     9  HIS9       -0.2718
     19  CB        -0.2240   22.5990    3.4360 C.3     9  HIS9        0.0759
     20  CG         0.3930   22.6070    4.7930 C.ar    9  HIS9        0.0818
     21  ND1       -0.3410   22.5220    5.9610 N.ar    9  HIS9       -0.2268
     22  CD2        1.6650   22.6450    5.1870 C.ar    9  HIS9        0.1154
     23  CE1        0.5210   22.5230    6.9970 C.ar    9  HIS9        0.1986
     24  NE2        1.7510   22.5700    6.5590 N.ar    9  HIS9       -0.2212
     25  N         -2.0200   23.2510    0.9090 N.am   10  ALA10      -0.1980
     26  CA        -2.2310   23.0990   -0.5230 C.3    10  ALA10       0.1597
     27  C         -2.2550   24.4370   -1.2540 C.2    10  ALA10       0.2287
     28  O         -1.9320   24.5050   -2.4330 O.2    10  ALA10      -0.2864
     29  CB        -3.5140   22.2980   -0.7950 C.3    10  ALA10       0.0319
     30  N          0.1130   23.0080   -3.5440 N.3    14  GLY14      -0.1210
     31  CA        -0.7900   21.9900   -4.0850 C.3    14  GLY14       0.1956
     32  C         -0.9080   20.7880   -3.1530 C.2    14  GLY14       0.2612
     33  O         -0.1970   20.6460   -2.1460 O.2    14  GLY14      -0.2717
     34  N         -1.7740   19.8530   -3.5370 N.am   15  CYS15      -0.1970
     35  CA        -1.8710   18.5830   -2.8340 C.3    15  CYS15       0.1712
     36  C         -0.5310   17.8380   -2.8960 C.2    15  CYS15       0.2296
     37  O         -0.1710   17.0930   -1.9960 O.2    15  CYS15      -0.2864
     38  CB        -2.9390   17.6940   -3.4360 C.3    15  CYS15       0.0983
     39  SG        -4.5900   18.4660   -3.5430 S.3    15  CYS15      -0.0798
     40  N          2.2960   19.0250   -2.4050 N.3    17  SER17      -0.1202
     41  CA         3.2390   19.4530   -1.3650 C.3    17  SER17       0.2020
     42  C          3.4800   18.3120   -0.3870 C.2    17  SER17       0.2619
     43  O          4.5690   18.2120    0.2020 O.2    17  SER17      -0.2717
     44  CB         2.6410   20.6160   -0.5770 C.3    17  SER17       0.2103
     45  OG         3.6410   21.2710    0.2080 O.3    17  SER17      -0.2182
     46  N          2.4360   17.4910   -0.1760 N.am   18  CYS18      -0.1955
     47  CA         2.5730   16.3710    0.7770 C.3    18  CYS18       0.1843
     48  C          2.4000   15.0010    0.1000 C.2    18  CYS18       0.2625
     49  O          2.8860   14.0240    0.6980 O.2    18  CYS18      -0.2714
     50  CB         1.5150   16.4920    1.8510 C.3    18  CYS18       0.0997
     51  SG         1.7950   17.9540    2.8570 S.3    18  CYS18      -0.0797
     52  N          1.6490   14.8760   -1.0170 N.am   19  HIS19      -0.1973
     53  CA         1.2970   13.6310   -1.5980 C.3    19  HIS19       0.1656
     54  C          1.8590   13.4710   -2.9880 C.2    19  HIS19       0.2291
     55  O          1.7270   14.3900   -3.8200 O.2    19  HIS19      -0.2864
     56  CB        -0.2050   13.5230   -1.7730 C.3    19  HIS19       0.0771
     57  CG        -1.0050   13.5150   -0.5130 C.ar   19  HIS19       0.0820
     58  ND1       -0.8460   12.6120    0.5130 N.ar   19  HIS19      -0.2267
     59  CD2       -2.0430   14.3460   -0.1420 C.ar   19  HIS19       0.1154
     60  CE1       -1.7530   12.8840    1.4170 C.ar   19  HIS19       0.1986
     61  NE2       -2.4900   13.9400    1.1140 N.ar   19  HIS19      -0.2212
     62  N         -0.3340   14.2050   -5.9050 N.3    22  GLY22      -0.1225
     63  CA        -1.5260   14.6180   -5.1880 C.3    22  GLY22       0.1811
     64  C         -2.3970   13.4950   -4.6550 C.2    22  GLY22       0.2280
     65  O         -3.5070   13.7430   -4.2420 O.2    22  GLY22      -0.2866
     66  N         -2.7950   10.1450   -1.9650 N.3    24  PRO24      -0.2102
     67  CA        -2.2250    9.6300   -0.6960 C.3    24  PRO24       0.1504
     68  C         -1.6330    8.2510   -0.8560 C.2    24  PRO24       0.2576
     69  O         -2.1260    7.3950   -1.6030 O.2    24  PRO24      -0.2718
     70  CB        -3.4340    9.5740    0.2140 C.3    24  PRO24       0.0282
     71  CG        -4.5890    9.3570   -0.6930 C.3    24  PRO24       0.0208
     72  CD        -4.2830   10.2270   -1.8810 C.3    24  PRO24       0.0893
     73  N         -0.5530    8.0070   -0.1310 N.am   25  SER25      -0.1938
     74  CA         0.0510    6.7070    0.0190 C.3    25  SER25       0.2055
     75  C         -0.7620    5.9210    1.0160 C.2    25  SER25       0.2642
     76  O         -1.4980    6.4030    1.8450 O.2    25  SER25      -0.2714
     77  CB         1.4690    6.7650    0.5470 C.3    25  SER25       0.2130
     78  OG         1.5780    7.1230    1.8930 O.3    25  SER25      -0.2179
     79  N         -0.5310    4.5770    0.9910 N.am   26  ALA26      -0.1977
     80  CA        -1.1750    3.7180    1.9750 C.3    26  ALA26       0.1597
     81  C         -0.5030    3.8400    3.3260 C.2    26  ALA26       0.2287
     82  O         -1.1570    3.7410    4.3450 O.2    26  ALA26      -0.2864
     83  CB        -1.0600    2.3120    1.4670 C.3    26  ALA26       0.0319
     84  N          4.4110   10.9920    3.0400 N.3    31  GLU31      -0.1245
     85  CA         3.8600   12.2350    3.6140 C.3    31  GLU31       0.1567
     86  C          4.7170   12.6560    4.8420 C.2    31  GLU31       0.2260
     87  O          4.9760   13.8460    4.9790 O.2    31  GLU31      -0.2867
     88  CB         2.4010   11.9620    4.0510 C.3    31  GLU31       0.0388
     89  CG         1.4540   11.8560    2.8370 C.3    31  GLU31       0.1160
     90  CD         1.4360   10.5380    2.0900 C.2    31  GLU31       0.3649
     91  OE1        2.0690    9.5480    2.5350 O.co2  31  GLU31      -0.2457
     92  OE2        0.7850   10.4770    1.0200 O.co2  31  GLU31      -0.2457
     93  N          6.5170   16.2720    5.5260 N.3    35  CYS35      -0.1235
     94  CA         6.3810   17.1620    6.6630 C.3    35  CYS35       0.1677
     95  C          7.7770   17.5760    7.1960 C.2    35  CYS35       0.2270
     96  O          8.0060   18.7230    7.4690 O.2    35  CYS35      -0.2867
     97  CB         5.6520   16.5720    7.8690 C.3    35  CYS35       0.0956
     98  SG         4.0910   15.6880    7.5860 S.3    35  CYS35      -0.0801
     99  N         -4.3160   16.4660    9.5030 N.3    64  VAL64      -0.1231
    100  CA        -4.3210   17.7540    8.8240 C.3    64  VAL64       0.1692
    101  C         -5.5310   17.9850    8.0120 C.2    64  VAL64       0.2592
    102  O         -5.8830   19.1740    7.7900 O.2    64  VAL64      -0.2718
    103  CB        -3.0460   17.9850    7.9540 C.3    64  VAL64       0.0266
    104  CG1       -1.8000   17.9670    8.8370 C.3    64  VAL64       0.0020
    105  CG2       -2.9170   16.9340    6.8470 C.3    64  VAL64       0.0020
    106  N         -6.2780   16.9430    7.6220 N.am   65  HIS65      -0.1976
    107  CA        -7.5130   17.1600    6.8920 C.3    65  HIS65       0.1656
    108  C         -8.7370   17.4380    7.7940 C.2    65  HIS65       0.2291
    109  O         -9.7290   17.9530    7.3100 O.2    65  HIS65      -0.2864
    110  CB        -7.8640   15.8920    6.0390 C.3    65  HIS65       0.0771
    111  CG        -6.9980   15.8070    4.7850 C.ar   65  HIS65       0.0820
    112  ND1       -7.4040   16.3620    3.6250 N.ar   65  HIS65      -0.2267
    113  CD2       -5.8180   15.2930    4.5120 C.ar   65  HIS65       0.1154
    114  CE1       -6.4710   16.1590    2.7020 C.ar   65  HIS65       0.1986
    115  NE2       -5.4540   15.5190    3.1930 N.ar   65  HIS65      -0.2212
@<TRIPOS>BOND
     1    62    63    1
     2    63    64    1
     3    64    65    2
     4    31    30    1
     5    31    32    1
     6    55    54    2
     7    39    38    1
     8    34    32   am
     9    34    35    1
    10    38    35    1
    11    32    33    2
    12    54    53    1
    13    36    35    1
    14    36    37    2
    15    28    27    2
    16    40    41    1
    17    66    72    1
    18    66    67    1
    19    72    71    1
    20    56    53    1
    21    56    57    1
    22    69    68    2
    23    53    52    1
    24    41    44    1
    25    41    42    1
    26    27    26    1
    27    52    48   am
    28    68    67    1
    29    68    73   am
    30    29    26    1
    31    67    70    1
    32    71    70    1
    33    44    45    1
    34    26    25    1
    35    57    59   ar
    36    57    58   ar
    37    42    46   am
    38    42    43    2
    39    46    47    1
    40    59    61   ar
    41    73    74    1
    42    74    77    1
    43    74    75    1
    44    48    49    2
    45    48    47    1
    46    58    60   ar
    47    77    78    1
    48    18    17    2
    49    47    50    1
    50    25    17   am
    51    79    75   am
    52    79    80    1
    53    75    76    2
    54    92    90   ar
    55    61    60   ar
    56    17    16    1
    57    13    12   ar
    58    83    80    1
    59    10     9    2
    60    50    51    1
    61    80    81    1
    62    90    91   ar
    63    90    89    1
    64    12    11    1
    65    12    14   ar
    66     4     3    2
    67     8     9    1
    68     8    11    1
    69     8     7    1
    70   114   115   ar
    71   114   112   ar
    72    89    88    1
    73    16    19    1
    74    16    15    1
    75    84    85    1
    76   115   113   ar
    77    81    82    2
    78    19    20    1
    79     3     7   am
    80     3     2    1
    81    85    88    1
    82    85    86    1
    83   112   111   ar
    84     5     6    1
    85     5     2    1
    86   113   111   ar
    87     2     1    1
    88   111   110    1
    89    20    22   ar
    90    20    21   ar
    91    86    87    2
    92    22    24   ar
    93    93    94    1
    94    21    23   ar
    95   110   107    1
    96    24    23   ar
    97    94    95    1
    98    94    97    1
    99   105   103    1
   100   107   106    1
   101   107   108    1
   102    95    96    2
   103   109   108    2
   104    98    97    1
   105   106   101   am
   106   102   101    2
   107   103   100    1
   108   103   104    1
   109   101   100    1
   110   100    99    1
