@<TRIPOS>MOLECULE
tmp/1m21B00.pdb
 218 206 0 0 0
SMALL
GASTEIGER

@<TRIPOS>ATOM
      1  N         35.1790   -0.6160   19.3470 N.3    81  LYS81      -0.1245
      2  CA        35.6740   -0.0060   18.1100 C.3    81  LYS81       0.1561
      3  C         37.1460    0.3560   18.3470 C.2    81  LYS81       0.2260
      4  O         37.5030    0.8050   19.4330 O.2    81  LYS81      -0.2867
      5  CB        34.8540    1.2490   17.8010 C.3    81  LYS81       0.0271
      6  CG        35.1980    1.9330   16.4890 C.3    81  LYS81       0.0035
      7  CD        34.2230    3.0630   16.2450 C.3    81  LYS81       0.0206
      8  CE        34.4510    3.7390   14.9120 C.3    81  LYS81       0.1093
      9  NZ        33.4650    4.8400   14.7280 N.3    81  LYS81      -0.1314
     10  N         38.2050    6.8750   11.5940 N.3   129  ALA129     -0.1231
     11  CA        36.7670    7.0820   11.6980 C.3   129  ALA129      0.1694
     12  C         36.2510    7.7900   10.4550 C.2   129  ALA129      0.2592
     13  O         35.3720    8.6360   10.5270 O.2   129  ALA129     -0.2718
     14  CB        36.4280    7.8820   12.9540 C.3   129  ALA129      0.0304
     15  N         36.8270    7.4360    9.3140 N.am  130  ASN130     -0.1960
     16  CA        36.4460    7.9880    8.0210 C.3   130  ASN130      0.1819
     17  C         36.7070    9.4790    7.8340 C.2   130  ASN130      0.2621
     18  O         36.1280   10.1060    6.9480 O.2   130  ASN130     -0.2715
     19  CB        34.9750    7.6820    7.7260 C.3   130  ASN130      0.1195
     20  CG        34.6780    7.6720    6.2390 C.2   130  ASN130      0.2630
     21  OD1       35.4800    7.1780    5.4470 O.2   130  ASN130     -0.2716
     22  ND2       33.5220    8.2050    5.8510 N.am  130  ASN130     -0.0877
     23  N         37.5780   10.0490    8.6590 N.am  131  PHE131     -0.1974
     24  CA        37.8970   11.4630    8.5120 C.3   131  PHE131      0.1639
     25  C         39.3090   11.5870    7.9530 C.2   131  PHE131      0.2290
     26  O         40.1450   12.2940    8.5140 O.2   131  PHE131     -0.2864
     27  CB        37.8110   12.1870    9.8570 C.3   131  PHE131      0.0560
     28  CG        37.5310   13.6640    9.7290 C.ar  131  PHE131     -0.0200
     29  CD1       36.2440   14.1180    9.4710 C.ar  131  PHE131     -0.0042
     30  CD2       38.5570   14.5920    9.8350 C.ar  131  PHE131     -0.0042
     31  CE1       35.9780   15.4830    9.3200 C.ar  131  PHE131     -0.0003
     32  CE2       38.3050   15.9580    9.6860 C.ar  131  PHE131     -0.0003
     33  CZ        37.0120   16.4010    9.4280 C.ar  131  PHE131     -0.0000
     34  N         38.7850   12.0350    0.6190 N.3   134  ASN134     -0.1240
     35  CA        37.5790   12.1230   -0.2040 C.3   134  ASN134      0.1653
     36  C         37.3450   10.7830   -0.9020 C.2   134  ASN134      0.2266
     37  O         38.2880   10.0280   -1.1400 O.2   134  ASN134     -0.2867
     38  CB        37.7180   13.2060   -1.2830 C.3   134  ASN134      0.1155
     39  CG        37.9230   14.5920   -0.7080 C.2   134  ASN134      0.2627
     40  OD1       37.2990   14.9650    0.2850 O.2   134  ASN134     -0.2716
     41  ND2       38.7830   15.3770   -1.3500 N.am  134  ASN134     -0.0877
     42  N         36.1900    8.0610    0.1370 N.3   136  SER136     -0.1217
     43  CA        36.6800    6.9590    0.9460 C.3   136  SER136      0.1889
     44  C         35.7530    5.7520    0.8510 C.2   136  SER136      0.2288
     45  O         34.6140    5.8620    0.3950 O.2   136  SER136     -0.2866
     46  CB        36.7970    7.4050    2.4040 C.3   136  SER136      0.2089
     47  OG        35.5310    7.7980    2.9020 O.3   136  SER136     -0.2183
     48  N         33.8980    2.9710    3.0700 N.3   138  SER138     -0.1217
     49  CA        33.4990    2.6400    4.4350 C.3   138  SER138      0.1889
     50  C         33.9020    1.2280    4.8170 C.2   138  SER138      0.2288
     51  O         33.8030    0.2980    4.0100 O.2   138  SER138     -0.2866
     52  CB        31.9820    2.7840    4.6090 C.3   138  SER138      0.2089
     53  OG        31.5960    4.1470    4.6600 O.3   138  SER138     -0.2183
     54  N         28.8890   -0.2400    5.7560 N.3   158  CYS158     -0.1221
     55  CA        28.7510    1.1870    6.0510 C.3   158  CYS158      0.1808
     56  C         29.7700    1.4810    7.1510 C.2   158  CYS158      0.2602
     57  O         30.7020    0.7140    7.3400 O.2   158  CYS158     -0.2717
     58  CB        27.3370    1.5130    6.5350 C.3   158  CYS158      0.0970
     59  SG        27.0170    3.2790    6.6540 S.3   158  CYS158     -0.0800
     60  N         29.6400    2.5920    7.8610 N.am  159  GLY159     -0.1942
     61  CA        30.6490    2.8360    8.9810 C.3   159  GLY159      0.2014
     62  C         30.5480    4.2150    9.5020 C.2   159  GLY159      0.2639
     63  O         29.5650    4.9360    9.3530 O.2   159  GLY159     -0.2714
     64  N         31.4050    4.5580   10.3760 N.am  160  SER160     -0.1949
     65  CA        32.8080    4.2700   10.7050 C.3   160  SER160      0.1924
     66  C         32.8290    3.0350   11.6550 C.2   160  SER160      0.2314
     67  O         33.7800    2.2580   11.6830 O.2   160  SER160     -0.2863
     68  CB        33.5120    5.5490   11.1610 C.3   160  SER160      0.2116
     69  OG        32.8660    6.0750   12.3120 O.3   160  SER160     -0.2180
     70  N         31.2830    4.5240   17.8970 N.3   179  THR179     -0.1203
     71  CA        31.3580    5.9670   18.1370 C.3   179  THR179      0.1994
     72  C         30.7210    6.6530   16.9360 C.2   179  THR179      0.2618
     73  O         30.7320    6.1170   15.8230 O.2   179  THR179     -0.2717
     74  CB        32.8250    6.5000   18.3100 C.3   179  THR179      0.1784
     75  OG1       33.5420    6.4150   17.0710 O.3   179  THR179     -0.2211
     76  CG2       33.5660    5.7050   19.3750 C.3   179  THR179      0.0376
     77  N         30.1320    7.8210   17.1670 N.am  180  GLU180     -0.1965
     78  CA        29.5120    8.5640   16.0790 C.3   180  GLU180      0.1733
     79  C         29.8700   10.0420   16.1570 C.2   180  GLU180      0.2617
     80  O         30.0180   10.6050   17.2460 O.2   180  GLU180     -0.2715
     81  CB        27.9770    8.4210   16.0920 C.3   180  GLU180      0.0429
     82  CG        27.3000    9.2020   14.9320 C.3   180  GLU180      0.1163
     83  CD        25.8490    8.8050   14.6400 C.2   180  GLU180      0.3649
     84  OE1       25.5190    7.6000   14.6990 O.co2 180  GLU180     -0.2457
     85  OE2       25.0370    9.7080   14.3110 O.co2 180  GLU180     -0.2457
     86  N         30.0310   10.6450   14.9860 N.am  181  THR181     -0.1937
     87  CA        30.3080   12.0670   14.8540 C.3   181  THR181      0.2028
     88  C         29.1530   12.5500   13.9640 C.2   181  THR181      0.2642
     89  O         28.5590   13.5990   14.2020 O.2   181  THR181     -0.2714
     90  CB        31.6650   12.3130   14.1740 C.3   181  THR181      0.1808
     91  OG1       32.7050   11.7240   14.9700 O.3   181  THR181     -0.2208
     92  CG2       31.9230   13.8060   14.0330 C.3   181  THR181      0.0379
     93  N         28.8380   11.7550   12.9420 N.am  182  ASP182     -0.1957
     94  CA        27.7170   12.0360   12.0420 C.3   182  ASP182      0.1840
     95  C         27.3220   10.7600   11.2830 C.2   182  ASP182      0.2623
     96  O         27.7880   10.5190   10.1740 O.2   182  ASP182     -0.2715
     97  CB        28.0530   13.1440   11.0360 C.3   182  ASP182      0.1450
     98  CG        26.8160   13.6460   10.2940 C.2   182  ASP182      0.3671
     99  OD1       25.8920   12.8350   10.0680 O.co2 182  ASP182     -0.2456
    100  OD2       26.7620   14.8420    9.9290 O.co2 182  ASP182     -0.2456
    101  N         26.4790    9.9460   11.9140 N.am  183  GLY183     -0.1940
    102  CA        26.0020    8.7120   11.3090 C.3   183  GLY183      0.2014
    103  C         26.7790    7.4340   11.5730 C.2   183  GLY183      0.2639
    104  O         26.3110    6.3450   11.2340 O.2   183  GLY183     -0.2714
    105  N         27.9450    7.5420   12.2020 N.am  184  SER184     -0.1949
    106  CA        28.7750    6.3640   12.4430 C.3   184  SER184      0.1924
    107  C         28.2940    5.2600   13.3530 C.2   184  SER184      0.2314
    108  O         28.9210    4.2030   13.4130 O.2   184  SER184     -0.2863
    109  CB        30.1540    6.7900   12.8840 C.3   184  SER184      0.2116
    110  OG        30.8260    7.2490   11.7460 O.3   184  SER184     -0.2180
    111  N         24.0300    4.5190   11.1920 N.3   187  CYS187     -0.1235
    112  CA        24.0310    4.0370    9.8150 C.3   187  CYS187      0.1677
    113  C         24.5230    2.5870    9.7340 C.2   187  CYS187      0.2270
    114  O         23.8440    1.7290    9.1680 O.2   187  CYS187     -0.2867
    115  CB        24.8710    4.9400    8.9180 C.3   187  CYS187      0.0956
    116  SG        24.4790    4.7010    7.1740 S.3   187  CYS187     -0.0801
    117  N         37.3720   13.2620   16.6400 N.3   212  ILE212     -0.1245
    118  CA        37.1370   13.9700   15.4020 C.3   212  ILE212      0.1561
    119  C         36.6190   15.3160   15.8910 C.2   212  ILE212      0.2260
    120  O         37.2570   16.3440   15.6790 O.2   212  ILE212     -0.2867
    121  CB        36.0610   13.3250   14.5020 C.3   212  ILE212      0.0252
    122  CG1       36.6040   12.0420   13.8640 C.3   212  ILE212      0.0019
    123  CG2       35.6710   14.3040   13.3960 C.3   212  ILE212      0.0019
    124  CD1       35.6420   11.4010   12.8740 C.3   212  ILE212      0.0001
    125  N         25.0370   22.1940    6.9120 N.3   314  ALA314     -0.1245
    126  CA        26.0990   21.5450    6.1430 C.3   314  ALA314      0.1562
    127  C         27.4460   22.2680    6.1530 C.2   314  ALA314      0.2260
    128  O         28.4570   21.6940    6.5540 O.2   314  ALA314     -0.2867
    129  CB        25.6340   21.3270    4.7010 C.3   314  ALA314      0.0290
    130  N         28.9860   22.6900    9.6840 N.3   317  GLU317     -0.1231
    131  CA        29.4810   21.4190   10.2080 C.3   317  GLU317      0.1699
    132  C         30.8380   21.0790    9.6080 C.2   317  GLU317      0.2592
    133  O         31.7360   20.6260   10.3110 O.2   317  GLU317     -0.2718
    134  CB        28.4900   20.2810    9.9250 C.3   317  GLU317      0.0402
    135  CG        28.9960   18.9100   10.3760 C.3   317  GLU317      0.1161
    136  CD        28.0390   17.7760   10.0460 C.2   317  GLU317      0.3649
    137  OE1       27.2480   17.9250    9.0870 O.co2 317  GLU317     -0.2457
    138  OE2       28.0900   16.7280   10.7320 O.co2 317  GLU317     -0.2457
    139  N         30.9930   21.3040    8.3070 N.am  318  ARG318     -0.1980
    140  CA        32.2610   21.0060    7.6540 C.3   318  ARG318      0.1597
    141  C         33.3810   21.7820    8.3270 C.2   318  ARG318      0.2287
    142  O         34.4270   21.2270    8.6550 O.2   318  ARG318     -0.2864
    143  CB        32.1980   21.3720    6.1690 C.3   318  ARG318      0.0334
    144  CG        33.4450   21.0090    5.3860 C.3   318  ARG318      0.0492
    145  CD        33.1680   21.0770    3.8910 C.3   318  ARG318      0.2205
    146  NE        34.2270   20.4470    3.1070 N.pl3 318  ARG318     -0.0865
    147  CZ        35.4620   20.9230    2.9880 C.cat 318  ARG318      0.5346
    148  NH1       35.8080   22.0490    3.6010 N.pl3 318  ARG318      0.1354
    149  NH2       36.3530   20.2660    2.2560 N.pl3 318  ARG318      0.1354
    150  N         34.1300   20.5900   12.0320 N.3   321  LEU321     -0.1231
    151  CA        34.7890   19.2860   12.1040 C.3   321  LEU321      0.1693
    152  C         36.2700   19.3760   11.7410 C.2   321  LEU321      0.2591
    153  O         37.1130   18.7560   12.3870 O.2   321  LEU321     -0.2718
    154  CB        34.0890   18.2760   11.1890 C.3   321  LEU321      0.0284
    155  CG        32.6670   17.8740   11.5930 C.3   321  LEU321      0.0019
    156  CD1       32.0860   16.9300   10.5550 C.3   321  LEU321      0.0001
    157  CD2       32.6880   17.1980   12.9530 C.3   321  LEU321      0.0001
    158  N         36.5910   20.1540   10.7130 N.am  322  LEU322     -0.1980
    159  CA        37.9840   20.2990   10.3030 C.3   322  LEU322      0.1596
    160  C         38.8210   20.9560   11.3950 C.2   322  LEU322      0.2287
    161  O         39.9270   20.5060   11.6890 O.2   322  LEU322     -0.2864
    162  CB        38.0790   21.1170    9.0140 C.3   322  LEU322      0.0297
    163  CG        37.6340   20.3900    7.7460 C.3   322  LEU322      0.0022
    164  CD1       37.5330   21.3920    6.6020 C.3   322  LEU322      0.0001
    165  CD2       38.6230   19.2770    7.4120 C.3   322  LEU322      0.0001
    166  N         41.2290   15.1420    3.6920 N.3   365  LEU365     -0.1245
    167  CA        40.6370   15.7250    4.8920 C.3   365  LEU365      0.1561
    168  C         41.7250   16.0350    5.9120 C.2   365  LEU365      0.2260
    169  O         41.6660   17.0570    6.6010 O.2   365  LEU365     -0.2867
    170  CB        39.5940   14.7890    5.5070 C.3   365  LEU365      0.0270
    171  CG        38.3910   14.4290    4.6290 C.3   365  LEU365      0.0019
    172  CD1       37.2910   13.8580    5.5170 C.3   365  LEU365      0.0001
    173  CD2       37.8850   15.6580    3.8960 C.3   365  LEU365      0.0001
    174  N         25.2470   -1.0190   -0.2050 N.3   417  TRP417     -0.1241
    175  CA        25.6250   -0.9070   -1.6070 C.3   417  TRP417      0.1605
    176  C         26.8560   -1.7630   -1.8660 C.2   417  TRP417      0.2264
    177  O         27.5980   -2.0930   -0.9430 O.2   417  TRP417     -0.2867
    178  CB        25.9320    0.5570   -1.9350 C.3   417  TRP417      0.0550
    179  CG        26.9820    1.1600   -1.0340 C.ar  417  TRP417      0.0003
    180  CD1       28.3330    1.1790   -1.2400 C.ar  417  TRP417      0.0946
    181  CD2       26.7610    1.7880    0.2350 C.ar  417  TRP417      0.0152
    182  NE1       28.9670    1.7830   -0.1760 N.ar  417  TRP417     -0.2442
    183  CE2       28.0250    2.1640    0.7430 C.ar  417  TRP417      0.0810
    184  CE3       25.6150    2.0680    0.9950 C.ar  417  TRP417      0.0012
    185  CZ2       28.1770    2.8090    1.9770 C.ar  417  TRP417      0.0191
    186  CZ3       25.7670    2.7110    2.2270 C.ar  417  TRP417      0.0001
    187  CH2       27.0410    3.0730    2.7010 C.ar  417  TRP417      0.0015
    188  N         31.9470    5.5520   -1.5020 N.3   424  ASP424     -0.1239
    189  CA        30.6770    4.9530   -1.1060 C.3   424  ASP424      0.1674
    190  C         29.5470    5.5050   -1.9590 C.2   424  ASP424      0.2266
    191  O         29.5860    6.6620   -2.3860 O.2   424  ASP424     -0.2867
    192  CB        30.3390    5.2640    0.3560 C.3   424  ASP424      0.1410
    193  CG        31.3250    4.6660    1.3310 C.2   424  ASP424      0.3668
    194  OD1       31.8670    3.5800    1.0410 O.co2 424  ASP424     -0.2456
    195  OD2       31.5370    5.2830    2.3980 O.co2 424  ASP424     -0.2456
    196  N         26.5290    6.5550   -1.2330 N.3   426  PHE426     -0.1241
    197  CA        25.6410    7.0340   -0.1760 C.3   426  PHE426      0.1605
    198  C         24.2180    7.2940   -0.6680 C.2   426  PHE426      0.2264
    199  O         23.9980    8.1330   -1.5430 O.2   426  PHE426     -0.2867
    200  CB        26.2250    8.3130    0.4300 C.3   426  PHE426      0.0534
    201  CG        25.5570    8.7520    1.7000 C.ar  426  PHE426     -0.0203
    202  CD1       25.5780    7.9380    2.8290 C.ar  426  PHE426     -0.0042
    203  CD2       24.9290    9.9930    1.7770 C.ar  426  PHE426     -0.0042
    204  CE1       24.9860    8.3550    4.0200 C.ar  426  PHE426     -0.0003
    205  CE2       24.3340   10.4200    2.9630 C.ar  426  PHE426     -0.0003
    206  CZ        24.3640    9.5990    4.0870 C.ar  426  PHE426     -0.0000
    207  N         19.5470   11.0960   10.0020 N.3   431  TYR431     -0.1241
    208  CA        20.1580   11.1560   11.3270 C.3   431  TYR431      0.1605
    209  C         21.1430   12.3020   11.5520 C.2   431  TYR431      0.2264
    210  O         21.6090   12.5180   12.6740 O.2   431  TYR431     -0.2867
    211  CB        20.8820    9.8370   11.5790 C.3   431  TYR431      0.0534
    212  CG        21.8990    9.5250   10.5010 C.ar  431  TYR431     -0.0201
    213  CD1       23.0300   10.3280   10.3270 C.ar  431  TYR431     -0.0009
    214  CD2       21.7150    8.4520    9.6300 C.ar  431  TYR431     -0.0009
    215  CE1       23.9450   10.0760    9.3170 C.ar  431  TYR431      0.0417
    216  CE2       22.6320    8.1860    8.6130 C.ar  431  TYR431      0.0417
    217  CZ        23.7430    9.0040    8.4620 C.ar  431  TYR431      0.1957
    218  OH        24.6460    8.7660    7.4530 O.3   431  TYR431     -0.2866
@<TRIPOS>BOND
     1   191   190    2
     2   190   189    1
     3   178   175    1
     4   178   179    1
     5   176   175    1
     6   176   177    2
     7   175   174    1
     8   199   198    2
     9   188   189    1
    10    41    39   am
    11    38    39    1
    12    38    35    1
    13   180   179   ar
    14   180   182   ar
    15   196   197    1
    16    37    36    2
    17   189   192    1
    18   179   181   ar
    19    36    35    1
    20    39    40    2
    21   198   197    1
    22    35    34    1
    23   182   183   ar
    24   197   200    1
    25    42    43    1
    26   181   183   ar
    27   181   184   ar
    28   192   193    1
    29    45    44    2
    30   200   201    1
    31   183   185   ar
    32    44    43    1
    33    43    46    1
    34   184   186   ar
    35   194   193   ar
    36   193   195   ar
    37   201   203   ar
    38   201   202   ar
    39   203   205   ar
    40   185   187   ar
    41   186   187   ar
    42   149   147    1
    43    46    47    1
    44   202   204   ar
    45   205   206   ar
    46   147   146    2
    47   147   148    1
    48    48    49    1
    49   146   145    1
    50   166   167    1
    51   145   144    1
    52   173   171    1
    53    51    50    2
    54   204   206   ar
    55    49    52    1
    56    49    50    1
    57    52    53    1
    58   171   170    1
    59   171   172    1
    60   129   126    1
    61   167   170    1
    62   167   168    1
    63   144   143    1
    64    21    20    2
    65    54    55    1
    66    22    20   am
    67   168   169    2
    68    55    58    1
    69    55    56    1
    70   126   127    1
    71   126   125    1
    72   127   128    2
    73   143   140    1
    74    20    19    1
    75    58    59    1
    76   164   163    1
    77    18    17    2
    78    56    57    2
    79    56    60   am
    80   116   115    1
    81   165   163    1
    82   218   217    1
    83   140   139    1
    84   140   141    1
    85    19    16    1
    86   163   162    1
    87    17    16    1
    88    17    23   am
    89    60    61    1
    90    25    24    1
    91    25    26    2
    92    16    15    1
    93   139   132   am
    94   141   142    2
    95   217   216   ar
    96   217   215   ar
    97    24    23    1
    98    24    27    1
    99   216   214   ar
   100   115   112    1
   101    61    62    1
   102   162   159    1
   103   137   136   ar
   104   114   113    2
   105    15    12   am
   106   215   213   ar
   107    31    33   ar
   108    31    29   ar
   109    63    62    2
   110    33    32   ar
   111    29    28   ar
   112    62    64   am
   113   132   131    1
   114   132   133    2
   115   214   212   ar
   116   130   131    1
   117    32    30   ar
   118    28    30   ar
   119    28    27    1
   120   113   112    1
   121   112   111    1
   122   134   131    1
   123   134   135    1
   124   100    98   ar
   125   207   208    1
   126   136   135    1
   127   136   138   ar
   128    99    98   ar
   129    96    95    2
   130    98    97    1
   131   159   158    1
   132   159   160    1
   133   213   212   ar
   134    64    65    1
   135    12    13    2
   136    12    11    1
   137   212   211    1
   138   156   155    1
   139    65    68    1
   140    65    66    1
   141   158   152   am
   142    97    94    1
   143    68    69    1
   144   154   155    1
   145   154   151    1
   146   104   103    2
   147    95   101   am
   148    95    94    1
   149   102   103    1
   150   102   101    1
   151   208   209    1
   152   208   211    1
   153   160   161    2
   154   209   210    2
   155   103   105   am
   156   155   157    1
   157    10    11    1
   158    66    67    2
   159    11    14    1
   160   152   151    1
   161   152   153    2
   162   110   109    1
   163   150   151    1
   164    94    93    1
   165   105   106    1
   166   106   109    1
   167   106   107    1
   168   124   122    1
   169    93    88   am
   170   107   108    2
   171   123   121    1
   172   122   121    1
   173    88    89    2
   174    88    87    1
   175    92    90    1
   176    90    87    1
   177    90    91    1
   178    85    83   ar
   179   121   118    1
   180    83    84   ar
   181    83    82    1
   182     9     8    1
   183    87    86    1
   184     8     7    1
   185    82    81    1
   186    86    79   am
   187   118   119    1
   188   118   117    1
   189   120   119    2
   190    73    72    2
   191    78    81    1
   192    78    79    1
   193    78    77    1
   194    79    80    2
   195     7     6    1
   196     6     5    1
   197    72    77   am
   198    72    71    1
   199    75    74    1
   200     5     2    1
   201    70    71    1
   202     2     3    1
   203     2     1    1
   204    71    74    1
   205    74    76    1
   206     3     4    2
