@<TRIPOS>MOLECULE
tmp/1m22B00.pdb
 92 86 0 0 0
SMALL
GASTEIGER

@<TRIPOS>ATOM
      1  N         25.2380   14.1580   23.3860 N.3   202  VAL202     -0.1245
      2  CA        26.6520   14.4030   23.6320 C.3   202  VAL202      0.1561
      3  C         26.7990   14.8510   25.0840 C.2   202  VAL202      0.2260
      4  O         26.2240   15.8600   25.5000 O.2   202  VAL202     -0.2867
      5  CB        27.2010   15.4850   22.6840 C.3   202  VAL202      0.0252
      6  CG1       28.6120   15.8840   23.1050 C.3   202  VAL202      0.0019
      7  CG2       27.2120   14.9540   21.2580 C.3   202  VAL202      0.0019
      8  N         33.8290   10.7900   26.4260 N.3   207  ARG207     -0.1245
      9  CA        34.6000   10.5690   25.2080 C.3   207  ARG207      0.1563
     10  C         36.0830   10.4280   25.5580 C.2   207  ARG207      0.2260
     11  O         36.9290   10.3230   24.6690 O.2   207  ARG207     -0.2867
     12  CB        34.4360   11.7300   24.2150 C.3   207  ARG207      0.0307
     13  CG        33.1210   11.7600   23.4320 C.3   207  ARG207      0.0489
     14  CD        31.9850   12.3820   24.2360 C.3   207  ARG207      0.2205
     15  NE        32.3150   13.7350   24.6840 N.pl3 207  ARG207     -0.0865
     16  CZ        32.3370   14.8100   23.9010 C.cat 207  ARG207      0.5346
     17  NH1       32.0360   14.7160   22.6120 N.pl3 207  ARG207      0.1354
     18  NH2       32.6990   15.9830   24.4040 N.pl3 207  ARG207      0.1354
     19  N         34.6850   17.2370   19.2790 N.3   215  PHE215     -0.1227
     20  CA        34.2120   17.2470   20.6530 C.3   215  PHE215      0.1736
     21  C         32.7670   17.7390   20.7000 C.2   215  PHE215      0.2596
     22  O         32.0390   17.4630   21.6500 O.2   215  PHE215     -0.2718
     23  CB        35.1220   18.0930   21.5580 C.3   215  PHE215      0.0547
     24  CG        35.3600   19.4890   21.0710 C.ar  215  PHE215     -0.0202
     25  CD1       34.3610   20.4530   21.1470 C.ar  215  PHE215     -0.0042
     26  CD2       36.6040   19.8500   20.5660 C.ar  215  PHE215     -0.0042
     27  CE1       34.6010   21.7620   20.7260 C.ar  215  PHE215     -0.0003
     28  CE2       36.8530   21.1540   20.1430 C.ar  215  PHE215     -0.0003
     29  CZ        35.8500   22.1110   20.2250 C.ar  215  PHE215     -0.0000
     30  N         32.3350   18.4470   19.6620 N.am  216  SER216     -0.1952
     31  CA        30.9640   18.9360   19.6170 C.3   216  SER216      0.1924
     32  C         29.9380   17.8490   19.2800 C.2   216  SER216      0.2314
     33  O         28.8060   17.8940   19.7680 O.2   216  SER216     -0.2863
     34  CB        30.8280   20.0660   18.5880 C.3   216  SER216      0.2116
     35  OG        31.5150   21.2330   19.0070 O.3   216  SER216     -0.2180
     36  N         36.1200   14.7770   30.7480 N.3   244  ASP244     -0.1225
     37  CA        35.2780   15.1740   29.6200 C.3   244  ASP244      0.1790
     38  C         34.2350   16.1870   30.0900 C.2   244  ASP244      0.2440
     39  O         33.1770   15.8170   30.6000 O.2   244  ASP244     -0.2733
     40  CB        34.5890   13.9440   29.0160 C.3   244  ASP244      0.1423
     41  CG        33.7350   14.2830   27.8030 C.2   244  ASP244      0.3668
     42  OD1       33.6850   15.4670   27.4030 O.co2 244  ASP244     -0.2456
     43  OD2       33.1060   13.3620   27.2450 O.co2 244  ASP244     -0.2456
     44  N         34.5210   17.4870   29.9140 N.am  245  PRO245     -0.2718
     45  CA        33.6280   18.5790   30.3170 C.3   245  PRO245      0.1535
     46  C         32.1830   18.4770   29.8350 C.2   245  PRO245      0.2598
     47  O         31.2700   18.9840   30.4880 O.2   245  PRO245     -0.2715
     48  CB        34.3320   19.8170   29.7660 C.3   245  PRO245      0.0310
     49  CG        35.7700   19.4450   29.8550 C.3   245  PRO245      0.0237
     50  CD        35.7690   18.0230   29.3400 C.3   245  PRO245      0.0939
     51  N         31.9680   17.8300   28.6960 N.am  246  ALA246     -0.1978
     52  CA        30.6160   17.7000   28.1720 C.3   246  ALA246      0.1597
     53  C         29.7280   16.9090   29.1280 C.2   246  ALA246      0.2287
     54  O         28.5180   17.1290   29.1780 O.2   246  ALA246     -0.2864
     55  CB        30.6430   17.0240   26.8010 C.3   246  ALA246      0.0319
     56  N         27.6240   18.8670   31.7060 N.3   249  THR249     -0.1218
     57  CA        26.5020   19.6740   31.2280 C.3   249  THR249      0.1862
     58  C         25.1540   18.9740   31.3490 C.2   249  THR249      0.2287
     59  O         24.1140   19.5700   31.0680 O.2   249  THR249     -0.2866
     60  CB        26.6840   20.0740   29.7480 C.3   249  THR249      0.1770
     61  OG1       26.5380   18.9150   28.9160 O.3   249  THR249     -0.2211
     62  CG2       28.0590   20.6830   29.5250 C.3   249  THR249      0.0375
     63  N         45.5490   16.7630   20.6020 N.3   332  ARG332     -0.1245
     64  CA        45.4390   16.7150   22.0600 C.3   332  ARG332      0.1563
     65  C         45.4770   15.2470   22.4970 C.2   332  ARG332      0.2260
     66  O         46.1380   14.8970   23.4740 O.2   332  ARG332     -0.2867
     67  CB        44.1330   17.3630   22.5370 C.3   332  ARG332      0.0307
     68  CG        43.9280   17.2970   24.0530 C.3   332  ARG332      0.0489
     69  CD        42.7730   18.1850   24.5080 C.3   332  ARG332      0.2205
     70  NE        41.4710   17.7090   24.0440 N.pl3 332  ARG332     -0.0865
     71  CZ        40.8240   16.6660   24.5570 C.cat 332  ARG332      0.5346
     72  NH1       41.3530   15.9800   25.5590 N.pl3 332  ARG332      0.1354
     73  NH2       39.6450   16.3070   24.0680 N.pl3 332  ARG332      0.1354
     74  N         41.0160   26.8990   17.1230 N.3   376  LEU376     -0.1245
     75  CA        39.6900   27.0880   17.6980 C.3   376  LEU376      0.1561
     76  C         39.3080   28.5280   18.0410 C.2   376  LEU376      0.2260
     77  O         38.1660   28.7940   18.4180 O.2   376  LEU376     -0.2867
     78  CB        39.5420   26.1960   18.9340 C.3   376  LEU376      0.0270
     79  CG        39.7970   24.7050   18.6800 C.3   376  LEU376      0.0019
     80  CD1       39.5960   23.9230   19.9660 C.3   376  LEU376      0.0001
     81  CD2       38.8580   24.1920   17.5950 C.3   376  LEU376      0.0001
     82  N         30.5020   26.5270   14.4400 N.3   385  ARG385     -0.1245
     83  CA        30.1050   25.6550   15.5390 C.3   385  ARG385      0.1563
     84  C         28.7490   26.0930   16.0820 C.2   385  ARG385      0.2260
     85  O         27.8630   25.2700   16.3170 O.2   385  ARG385     -0.2867
     86  CB        31.1490   25.6980   16.6560 C.3   385  ARG385      0.0307
     87  CG        30.8530   24.7640   17.8250 C.3   385  ARG385      0.0489
     88  CD        31.9590   24.8210   18.8650 C.3   385  ARG385      0.2205
     89  NE        32.1070   26.1540   19.4420 N.pl3 385  ARG385     -0.0865
     90  CZ        33.1020   26.5120   20.2470 C.cat 385  ARG385      0.5346
     91  NH1       34.0430   25.6350   20.5730 N.pl3 385  ARG385      0.1354
     92  NH2       33.1580   27.7480   20.7260 N.pl3 385  ARG385      0.1354
@<TRIPOS>BOND
     1    82    83    1
     2    83    84    1
     3    83    86    1
     4    84    85    2
     5    86    87    1
     6    74    75    1
     7    81    79    1
     8    75    76    1
     9    75    78    1
    10    87    88    1
    11    76    77    2
    12    34    35    1
    13    34    31    1
    14    79    78    1
    15    79    80    1
    16    88    89    1
    17    19    20    1
    18    32    31    1
    19    32    33    2
    20    89    90    2
    21    31    30    1
    22    30    21   am
    23    28    29   ar
    24    28    26   ar
    25    29    27   ar
    26    90    91    1
    27    90    92    1
    28    26    24   ar
    29    63    64    1
    30    20    21    1
    31    20    23    1
    32    21    22    2
    33    27    25   ar
    34    24    25   ar
    35    24    23    1
    36     7     5    1
    37    64    65    1
    38    64    67    1
    39    65    66    2
    40    67    68    1
    41    17    16    1
    42     5     6    1
    43     5     2    1
    44     1     2    1
    45    13    12    1
    46    13    14    1
    47     2     3    1
    48    16    18    1
    49    16    15    2
    50    70    69    1
    51    70    71    2
    52    68    69    1
    53    73    71    1
    54    12     9    1
    55    14    15    1
    56    71    72    1
    57    11    10    2
    58     3     4    2
    59     9    10    1
    60     9     8    1
    61    55    52    1
    62    43    41   ar
    63    42    41   ar
    64    41    40    1
    65    52    51    1
    66    52    53    1
    67    51    46   am
    68    61    60    1
    69    40    37    1
    70    53    54    2
    71    50    49    1
    72    50    44    1
    73    62    60    1
    74    37    38    1
    75    37    36    1
    76    60    57    1
    77    48    49    1
    78    48    45    1
    79    46    45    1
    80    46    47    2
    81    44    38   am
    82    44    45    1
    83    38    39    2
    84    59    58    2
    85    57    58    1
    86    57    56    1
