@<TRIPOS>MOLECULE
tmp/1m26E00.pdb
 91 92 0 0 0
SMALL
GASTEIGER

@<TRIPOS>ATOM
      1  N         36.0100   -4.0760   -2.1490 N.3     1  GLY1       -0.1225
      2  CA        36.3570   -3.3620   -0.8900 C.3     1  GLY1        0.1811
      3  C         35.8760   -4.1270    0.3230 C.2     1  GLY1        0.2280
      4  O         35.1810   -5.1310    0.1940 O.2     1  GLY1       -0.2866
      5  N         42.8150    0.7930    1.6140 N.3    47  PHE47      -0.1241
      6  CA        43.8680   -0.2160    1.5090 C.3    47  PHE47       0.1605
      7  C         45.1980    0.4890    1.2630 C.2    47  PHE47       0.2264
      8  O         46.2640   -0.0960    1.4500 O.2    47  PHE47      -0.2867
      9  CB        43.6090   -1.1790    0.3430 C.3    47  PHE47       0.0534
     10  CG        42.4060   -2.0590    0.5270 C.ar   47  PHE47      -0.0203
     11  CD1       41.9190   -2.3490    1.7980 C.ar   47  PHE47      -0.0042
     12  CD2       41.7770   -2.6220   -0.5740 C.ar   47  PHE47      -0.0042
     13  CE1       40.8200   -3.1900    1.9670 C.ar   47  PHE47      -0.0003
     14  CE2       40.6790   -3.4630   -0.4130 C.ar   47  PHE47      -0.0003
     15  CZ        40.2030   -3.7460    0.8590 C.ar   47  PHE47      -0.0000
     16  N         37.0360    1.5700  -11.2900 N.3    78  TYR78      -0.1227
     17  CA        36.0310    1.3060  -10.2610 C.3    78  TYR78       0.1736
     18  C         35.1210    2.5010  -10.0180 C.2    78  TYR78       0.2595
     19  O         35.5720    3.6430  -10.0760 O.2    78  TYR78      -0.2718
     20  CB        36.7100    0.9680   -8.9310 C.3    78  TYR78       0.0548
     21  CG        37.6270   -0.2210   -8.9780 C.ar   78  TYR78      -0.0200
     22  CD1       37.1190   -1.5200   -8.9790 C.ar   78  TYR78      -0.0009
     23  CD2       39.0080   -0.0490   -9.0310 C.ar   78  TYR78      -0.0009
     24  CE1       37.9700   -2.6200   -9.0310 C.ar   78  TYR78       0.0417
     25  CE2       39.8660   -1.1410   -9.0830 C.ar   78  TYR78       0.0417
     26  CZ        39.3410   -2.4190   -9.0830 C.ar   78  TYR78       0.1957
     27  OH        40.1940   -3.4960   -9.1350 O.3    78  TYR78      -0.2866
     28  N         33.8430    2.2370   -9.7380 N.am   79  VAL79      -0.1966
     29  CA        32.9050    3.3150   -9.4190 C.3    79  VAL79       0.1727
     30  C         33.1180    3.5550   -7.9380 C.2    79  VAL79       0.2616
     31  O         33.0390    2.6190   -7.1440 O.2    79  VAL79      -0.2715
     32  CB        31.4260    2.9020   -9.5840 C.3    79  VAL79       0.0290
     33  CG1       30.5240    4.0930   -9.2610 C.3    79  VAL79       0.0023
     34  CG2       31.1700    2.4030  -10.9970 C.3    79  VAL79       0.0023
     35  N         33.3850    4.7950   -7.5600 N.am   80  VAL80      -0.1977
     36  CA        33.6060    5.1120   -6.1570 C.3    80  VAL80       0.1596
     37  C         33.0150    6.4770   -5.8520 C.2    80  VAL80       0.2287
     38  O         32.5370    7.1770   -6.7470 O.2    80  VAL80      -0.2864
     39  CB        35.1190    5.1280   -5.8190 C.3    80  VAL80       0.0276
     40  CG1       35.7160    3.7420   -6.0120 C.3    80  VAL80       0.0022
     41  CG2       35.8440    6.1300   -6.7010 C.3    80  VAL80       0.0022
     42  N         37.7170    0.1640   -0.3930 N.3   121  GLY121     -0.1210
     43  CA        38.8050   -0.6530   -0.9090 C.3   121  GLY121      0.1956
     44  C         39.9390    0.3490   -0.9970 C.2   121  GLY121      0.2612
     45  O         40.4600    0.7880    0.0290 O.2   121  GLY121     -0.2717
     46  N         40.3210    0.7240   -2.2110 N.am  122  TYR122     -0.1962
     47  CA        41.3440    1.7490   -2.3890 C.3   122  TYR122      0.1771
     48  C         40.6390    3.0470   -2.0110 C.2   122  TYR122      0.2619
     49  O         41.2390    3.9640   -1.4580 O.2   122  TYR122     -0.2715
     50  CB        41.7800    1.8490   -3.8540 C.3   122  TYR122      0.0574
     51  CG        42.6420    0.7150   -4.3400 C.ar  122  TYR122     -0.0198
     52  CD1       42.5580    0.2730   -5.6610 C.ar  122  TYR122     -0.0009
     53  CD2       43.5500    0.0910   -3.4910 C.ar  122  TYR122     -0.0009
     54  CE1       43.3600   -0.7680   -6.1260 C.ar  122  TYR122      0.0417
     55  CE2       44.3580   -0.9500   -3.9430 C.ar  122  TYR122      0.0417
     56  CZ        44.2570   -1.3740   -5.2580 C.ar  122  TYR122      0.1957
     57  OH        45.0430   -2.4090   -5.7120 O.3   122  TYR122     -0.2866
     58  N         39.3490    3.1170   -2.3290 N.am  123  TRP123     -0.1974
     59  CA        38.5500    4.3000   -2.0340 C.3   123  TRP123      0.1640
     60  C         37.1660    3.8920   -1.5390 C.2   123  TRP123      0.2290
     61  O         36.8220    2.7120   -1.5310 O.2   123  TRP123     -0.2864
     62  CB        38.4190    5.1690   -3.2960 C.3   123  TRP123      0.0576
     63  CG        39.7430    5.5170   -3.8930 C.ar  123  TRP123      0.0006
     64  CD1       40.6700    6.3950   -3.3920 C.ar  123  TRP123      0.0946
     65  CD2       40.3450    4.9090   -5.0390 C.ar  123  TRP123      0.0152
     66  NE1       41.8160    6.3580   -4.1540 N.ar  123  TRP123     -0.2442
     67  CE2       41.6430    5.4540   -5.1710 C.ar  123  TRP123      0.0810
     68  CE3       39.9160    3.9490   -5.9670 C.ar  123  TRP123      0.0012
     69  CZ2       42.5180    5.0700   -6.1930 C.ar  123  TRP123      0.0191
     70  CZ3       40.7880    3.5640   -6.9840 C.ar  123  TRP123      0.0001
     71  CH2       42.0760    4.1270   -7.0860 C.ar  123  TRP123      0.0015
     72  N         33.8070    2.8220   -1.7960 N.3   125  ASP125     -0.1225
     73  CA        33.0440    2.2100   -2.8930 C.3   125  ASP125      0.1805
     74  C         31.6040    2.7080   -2.9620 C.2   125  ASP125      0.2597
     75  O         31.1070    3.0820   -4.0240 O.2   125  ASP125     -0.2718
     76  CB        33.0210    0.6850   -2.7430 C.3   125  ASP125      0.1424
     77  CG        34.4080    0.0790   -2.7030 C.2   125  ASP125      0.3668
     78  OD1       35.2130    0.3940   -3.6030 O.co2 125  ASP125     -0.2456
     79  OD2       34.6870   -0.7130   -1.7750 O.co2 125  ASP125     -0.2456
     80  N         30.9430    2.6900   -1.8140 N.am  126  TYR126     -0.1976
     81  CA        29.5610    3.1280   -1.6970 C.3   126  TYR126      0.1639
     82  C         29.2500    3.2900   -0.2260 C.2   126  TYR126      0.2290
     83  O         30.0320    2.8740    0.6410 O.2   126  TYR126     -0.2864
     84  CB        28.6170    2.0860   -2.3200 C.3   126  TYR126      0.0560
     85  CG        28.7560    0.6950   -1.7420 C.ar  126  TYR126     -0.0198
     86  CD1       28.1850    0.3610   -0.5130 C.ar  126  TYR126     -0.0009
     87  CD2       29.4860   -0.2830   -2.4160 C.ar  126  TYR126     -0.0009
     88  CE1       28.3430   -0.9160    0.0270 C.ar  126  TYR126      0.0417
     89  CE2       29.6500   -1.5520   -1.8880 C.ar  126  TYR126      0.0417
     90  CZ        29.0780   -1.8640   -0.6710 C.ar  126  TYR126      0.1957
     91  OH        29.2420   -3.1330   -0.1640 O.3   126  TYR126     -0.2866
@<TRIPOS>BOND
     1    16    17    1
     2    34    32    1
     3    17    18    1
     4    17    20    1
     5    19    18    2
     6    18    28   am
     7    28    29    1
     8    32    29    1
     9    32    33    1
    10    29    30    1
    11    27    26    1
    12    26    25   ar
    13    26    24   ar
    14    25    23   ar
    15    24    22   ar
    16    23    21   ar
    17    22    21   ar
    18    21    20    1
    19    30    35   am
    20    30    31    2
    21    35    36    1
    22    71    70   ar
    23    71    69   ar
    24    70    68   ar
    25    38    37    2
    26    41    39    1
    27    69    67   ar
    28    36    37    1
    29    36    39    1
    30    54    52   ar
    31    54    56   ar
    32    40    39    1
    33    68    65   ar
    34    57    56    1
    35    52    51   ar
    36    56    55   ar
    37    67    65   ar
    38    67    66   ar
    39    65    63   ar
    40    51    50    1
    41    51    53   ar
    42    66    64   ar
    43    75    74    2
    44    55    53   ar
    45    63    64   ar
    46    63    62    1
    47    50    47    1
    48    78    77   ar
    49    62    59    1
    50    74    73    1
    51    74    80   am
    52    73    76    1
    53    73    72    1
    54    76    77    1
    55    77    79   ar
    56    87    89   ar
    57    87    85   ar
    58    47    46    1
    59    47    48    1
    60    58    59    1
    61    58    48   am
    62    84    85    1
    63    84    81    1
    64    46    44   am
    65     1     2    1
    66    59    60    1
    67    48    49    2
    68    89    90   ar
    69    80    81    1
    70    85    86   ar
    71    81    82    1
    72    60    61    2
    73    44    43    1
    74    44    45    2
    75    43    42    1
    76     2     3    1
    77    90    91    1
    78    90    88   ar
    79    12    14   ar
    80    12    10   ar
    81    86    88   ar
    82    14    15   ar
    83    82    83    2
    84     4     3    2
    85     9    10    1
    86     9     6    1
    87    10    11   ar
    88    15    13   ar
    89     7     8    2
    90     7     6    1
    91     6     5    1
    92    11    13   ar
