@<TRIPOS>MOLECULE
tmp/1m27A00.pdb
 81 74 0 0 0
SMALL
GASTEIGER

@<TRIPOS>ATOM
      1  N         33.0380   38.4770   76.5210 N.3    13  ARG13      -0.1245
      2  CA        32.6170   37.7800   77.7200 C.3    13  ARG13       0.1563
      3  C         31.4250   38.5030   78.3360 C.2    13  ARG13       0.2260
      4  O         30.4420   37.8710   78.7230 O.2    13  ARG13      -0.2867
      5  CB        33.7650   37.7240   78.7250 C.3    13  ARG13       0.0307
      6  CG        33.4520   36.9180   79.9590 C.3    13  ARG13       0.0489
      7  CD        34.6430   36.8670   80.8830 C.3    13  ARG13       0.2205
      8  NE        34.9650   38.1820   81.4220 N.pl3  13  ARG13      -0.0865
      9  CZ        35.9180   38.4080   82.3230 C.cat  13  ARG13       0.5346
     10  NH1       36.1360   39.6420   82.7590 N.pl3  13  ARG13       0.1354
     11  NH2       36.6590   37.4040   82.7840 N.pl3  13  ARG13       0.1354
     12  N         30.3210   30.5010   72.7760 N.3    32  ARG32      -0.1245
     13  CA        31.0540   31.5490   72.0840 C.3    32  ARG32       0.1563
     14  C         32.5270   31.1810   71.9990 C.2    32  ARG32       0.2260
     15  O         32.9450   30.1410   72.5130 O.2    32  ARG32      -0.2867
     16  CB        30.9080   32.8850   72.8160 C.3    32  ARG32       0.0307
     17  CG        31.5620   32.9080   74.1750 C.3    32  ARG32       0.0489
     18  CD        31.4320   34.2670   74.8250 C.3    32  ARG32       0.2205
     19  NE        31.8080   34.2150   76.2360 N.pl3  32  ARG32      -0.0865
     20  CZ        33.0520   34.0600   76.6840 C.cat  32  ARG32       0.5346
     21  NH1       34.0700   33.9440   75.8310 N.pl3  32  ARG32       0.1354
     22  NH2       33.2770   34.0160   77.9920 N.pl3  32  ARG32       0.1354
     23  N         36.6350   31.8310   72.6760 N.3    34  SER34      -0.1202
     24  CA        37.4350   32.2750   73.8120 C.3    34  SER34       0.2020
     25  C         37.9110   33.6650   73.3930 C.2    34  SER34       0.2619
     26  O         38.1200   33.9070   72.2070 O.2    34  SER34      -0.2717
     27  CB        38.6300   31.3350   74.0140 C.3    34  SER34       0.2103
     28  OG        39.5080   31.8240   75.0080 O.3    34  SER34      -0.2182
     29  N         38.0750   34.5780   74.3420 N.am   35  GLU35      -0.1965
     30  CA        38.5230   35.9240   73.9980 C.3    35  GLU35       0.1733
     31  C         40.0150   36.0490   73.6700 C.2    35  GLU35       0.2617
     32  O         40.4630   37.1190   73.2610 O.2    35  GLU35      -0.2715
     33  CB        38.1910   36.9100   75.1220 C.3    35  GLU35       0.0429
     34  CG        36.7370   37.3350   75.1880 C.3    35  GLU35       0.1163
     35  CD        36.5150   38.4970   76.1480 C.2    35  GLU35       0.3649
     36  OE1       36.8500   38.3560   77.3440 O.co2  35  GLU35      -0.2457
     37  OE2       36.0080   39.5540   75.7090 O.co2  35  GLU35      -0.2457
     38  N         40.7910   34.9800   73.8270 N.am   36  SER36      -0.1936
     39  CA        42.2220   35.0950   73.5510 C.3    36  SER36       0.2055
     40  C         42.9770   33.8240   73.1590 C.2    36  SER36       0.2642
     41  O         44.1770   33.8840   72.8890 O.2    36  SER36      -0.2714
     42  CB        42.9180   35.7250   74.7560 C.3    36  SER36       0.2130
     43  OG        42.7990   34.8830   75.8880 O.3    36  SER36      -0.2179
     44  N         42.3010   32.6800   73.1380 N.am   37  VAL37      -0.1977
     45  CA        42.9620   31.4420   72.7530 C.3    37  VAL37       0.1596
     46  C         42.2710   30.8530   71.5320 C.2    37  VAL37       0.2287
     47  O         41.1060   30.4660   71.5850 O.2    37  VAL37      -0.2864
     48  CB        42.9440   30.4000   73.8860 C.3    37  VAL37       0.0276
     49  CG1       43.7280   29.1720   73.4690 C.3    37  VAL37       0.0022
     50  CG2       43.5270   30.9930   75.1410 C.3    37  VAL37       0.0022
     51  N         39.7010   27.4710   71.0500 N.3    40  VAL40      -0.1245
     52  CA        39.1030   27.1430   72.3330 C.3    40  VAL40       0.1561
     53  C         37.7460   27.8430   72.4340 C.2    40  VAL40       0.2260
     54  O         37.6040   29.0210   72.0760 O.2    40  VAL40      -0.2867
     55  CB        40.0100   27.5760   73.5030 C.3    40  VAL40       0.0252
     56  CG1       39.2900   27.3720   74.8230 C.3    40  VAL40       0.0019
     57  CG2       41.2950   26.7600   73.4830 C.3    40  VAL40       0.0019
     58  N         33.9110   28.5300   74.7240 N.3    42  CYS42      -0.1235
     59  CA        33.3150   28.6290   76.0530 C.3    42  CYS42       0.1677
     60  C         31.8150   28.3390   76.0990 C.2    42  CYS42       0.2270
     61  O         31.0090   29.0370   75.4710 O.2    42  CYS42      -0.2867
     62  CB        33.5470   30.0300   76.6370 C.3    42  CYS42       0.0956
     63  SG        35.2720   30.4940   76.8970 S.3    42  CYS42      -0.0801
     64  N         31.2790   29.1860   83.1160 N.3    53  THR53      -0.1218
     65  CA        31.9490   28.9860   81.8470 C.3    53  THR53       0.1862
     66  C         32.8170   27.7320   81.8100 C.2    53  THR53       0.2287
     67  O         33.7260   27.5620   82.6290 O.2    53  THR53      -0.2866
     68  CB        32.8230   30.1990   81.5340 C.3    53  THR53       0.1770
     69  OG1       32.0440   31.3930   81.6930 O.3    53  THR53      -0.2211
     70  CG2       33.3620   30.1170   80.1150 C.3    53  THR53       0.0375
     71  N         35.3360   25.4560   79.4370 N.3    55  ARG55      -0.1245
     72  CA        36.1790   25.5410   78.2610 C.3    55  ARG55       0.1563
     73  C         36.0480   24.2580   77.4500 C.2    55  ARG55       0.2260
     74  O         36.1170   23.1600   77.9970 O.2    55  ARG55      -0.2867
     75  CB        37.6320   25.7920   78.6780 C.3    55  ARG55       0.0307
     76  CG        37.9240   27.2530   79.0140 C.3    55  ARG55       0.0489
     77  CD        39.4030   27.4850   79.3240 C.3    55  ARG55       0.2205
     78  NE        39.7140   27.2980   80.7400 N.pl3  55  ARG55      -0.0865
     79  CZ        39.7570   28.2840   81.6330 C.cat  55  ARG55       0.5346
     80  NH1       39.5160   29.5340   81.2590 N.pl3  55  ARG55       0.1354
     81  NH2       40.0310   28.0200   82.9070 N.pl3  55  ARG55       0.1354
@<TRIPOS>BOND
     1    51    52    1
     2    46    47    2
     3    46    45    1
     4    14    13    1
     5    14    15    2
     6    54    53    2
     7    13    12    1
     8    13    16    1
     9    26    25    2
    10    52    53    1
    11    52    55    1
    12    23    24    1
    13    45    44    1
    14    45    48    1
    15    16    17    1
    16    41    40    2
    17    44    40   am
    18    40    39    1
    19    32    31    2
    20    25    24    1
    21    25    29   am
    22    49    48    1
    23    57    55    1
    24    55    56    1
    25    39    38    1
    26    39    42    1
    27    31    38   am
    28    31    30    1
    29    24    27    1
    30    48    50    1
    31    30    29    1
    32    30    33    1
    33    27    28    1
    34    17    18    1
    35    58    59    1
    36    42    43    1
    37    18    19    1
    38    33    34    1
    39    34    35    1
    40    61    60    2
    41    37    35   ar
    42    21    20    1
    43    59    60    1
    44    59    62    1
    45    35    36   ar
    46    19    20    2
    47     1     2    1
    48    62    63    1
    49    20    22    1
    50    73    74    2
    51    73    72    1
    52     2     3    1
    53     2     5    1
    54    72    75    1
    55    72    71    1
    56     3     4    2
    57    75    76    1
    58     5     6    1
    59    76    77    1
    60    77    78    1
    61     6     7    1
    62    70    68    1
    63    78    79    2
    64     7     8    1
    65    80    79    1
    66     8     9    2
    67    68    69    1
    68    68    65    1
    69    79    81    1
    70    66    65    1
    71    66    67    2
    72    65    64    1
    73     9    10    1
    74     9    11    1
