@<TRIPOS>MOLECULE
tmp/1m2kA00.pdb
 209 202 0 0 0
SMALL
GASTEIGER

@<TRIPOS>ATOM
      1  N          1.1460    0.6140   14.1090 N.3    20  GLY20      -0.1210
      2  CA         0.5150   -0.4750   13.3910 C.3    20  GLY20       0.1956
      3  C         -0.2860    0.0680   12.2180 C.2    20  GLY20       0.2612
      4  O         -0.2300    1.2630   11.9240 O.2    20  GLY20      -0.2717
      5  N         -1.0530   -0.8040   11.5640 N.am   21  ALA21      -0.1965
      6  CA        -1.8370   -0.4350   10.3830 C.3    21  ALA21       0.1728
      7  C         -2.7960    0.7380   10.5550 C.2    21  ALA21       0.2616
      8  O         -3.1570    1.3970    9.5770 O.2    21  ALA21      -0.2715
      9  CB        -2.6050   -1.6510    9.8800 C.3    21  ALA21       0.0334
     10  N         -3.2160    0.9830   11.7900 N.am   22  GLY22      -0.1955
     11  CA        -4.1330    2.0760   12.0590 C.3    22  GLY22       0.1869
     12  C         -3.5850    3.4510   11.7220 C.2    22  GLY22       0.2309
     13  O         -4.3530    4.3660   11.4220 O.2    22  GLY22      -0.2863
     14  N         -4.4430    4.1140    8.0130 N.3    25  ALA25      -0.1231
     15  CA        -5.8430    4.0350    7.6100 C.3    25  ALA25       0.1694
     16  C         -6.3160    5.3490    6.9970 C.2    25  ALA25       0.2591
     17  O         -7.0680    5.3520    6.0150 O.2    25  ALA25      -0.2718
     18  CB        -6.7080    3.6820    8.8080 C.3    25  ALA25       0.0304
     19  N         -5.8740    6.4630    7.5720 N.am   26  GLU26      -0.1979
     20  CA        -6.2730    7.7740    7.0800 C.3    26  GLU26       0.1602
     21  C         -5.5870    8.1740    5.7750 C.2    26  GLU26       0.2287
     22  O         -5.7550    9.3010    5.2970 O.2    26  GLU26      -0.2864
     23  CB        -6.0580    8.8250    8.1740 C.3    26  GLU26       0.0415
     24  CG        -7.0000    8.6210    9.3600 C.3    26  GLU26       0.1163
     25  CD        -6.6100    9.4180   10.5900 C.2    26  GLU26       0.3649
     26  OE1       -6.9100   10.6310   10.6540 O.co2  26  GLU26      -0.2457
     27  OE2       -5.9960    8.8210   11.4980 O.co2  26  GLU26      -0.2457
     28  N         -6.8210   -1.5620    7.0880 N.3    31  THR31      -0.1203
     29  CA        -6.1360   -2.2040    8.2020 C.3    31  THR31       0.1994
     30  C         -6.3530   -3.7000    8.0200 C.2    31  THR31       0.2618
     31  O         -7.0010   -4.1230    7.0600 O.2    31  THR31      -0.2717
     32  CB        -6.7140   -1.7690    9.5700 C.3    31  THR31       0.1784
     33  OG1       -8.0980   -2.1320    9.6470 O.3    31  THR31      -0.2211
     34  CG2       -6.5750   -0.2660    9.7580 C.3    31  THR31       0.0376
     35  N         -5.8100   -4.5010    8.9320 N.am   32  PHE32      -0.1961
     36  CA        -5.9590   -5.9480    8.8470 C.3    32  PHE32       0.1771
     37  C         -7.1450   -6.4150    9.6780 C.2    32  PHE32       0.2619
     38  O         -7.8790   -7.3200    9.2710 O.2    32  PHE32      -0.2715
     39  CB        -4.6930   -6.6370    9.3490 C.3    32  PHE32       0.0574
     40  CG        -3.4850   -6.3730    8.4990 C.ar   32  PHE32      -0.0200
     41  CD1       -3.3010   -7.0540    7.3040 C.ar   32  PHE32      -0.0042
     42  CD2       -2.5380   -5.4320    8.8880 C.ar   32  PHE32      -0.0042
     43  CE1       -2.1900   -6.8030    6.5040 C.ar   32  PHE32      -0.0003
     44  CE2       -1.4240   -5.1740    8.0950 C.ar   32  PHE32      -0.0003
     45  CZ        -1.2510   -5.8610    6.9010 C.ar   32  PHE32      -0.0000
     46  N         -7.3260   -5.7890   10.8380 N.am   33  ARG33      -0.1963
     47  CA        -8.4060   -6.1480   11.7510 C.3    33  ARG33       0.1729
     48  C         -9.2950   -4.9510   12.0700 C.2    33  ARG33       0.2617
     49  O         -8.8450   -3.8050   12.0450 O.2    33  ARG33      -0.2715
     50  CB        -7.8120   -6.7310   13.0360 C.3    33  ARG33       0.0348
     51  CG        -6.8050   -7.8400   12.7550 C.3    33  ARG33       0.0492
     52  CD        -6.2170   -8.4670   14.0110 C.3    33  ARG33       0.2205
     53  NE        -5.3170   -9.5680   13.6660 N.pl3  33  ARG33      -0.0865
     54  CZ        -4.1000   -9.4160   13.1480 C.cat  33  ARG33       0.5346
     55  NH1       -3.3670  -10.4820   12.8590 N.pl3  33  ARG33       0.1354
     56  NH2       -3.6050   -8.2030   12.9370 N.pl3  33  ARG33       0.1354
     57  N        -10.5610   -5.2240   12.3680 N.am   34  GLY34      -0.1940
     58  CA       -11.4910   -4.1520   12.6680 C.3    34  GLY34       0.2014
     59  C        -12.2780   -3.7580   11.4320 C.2    34  GLY34       0.2638
     60  O        -12.2620   -4.4670   10.4260 O.2    34  GLY34      -0.2714
     61  N        -12.9610   -2.6200   11.5000 N.am   35  LYS35      -0.1977
     62  CA       -13.7660   -2.1370   10.3840 C.3    35  LYS35       0.1596
     63  C        -13.0170   -2.1450    9.0540 C.2    35  LYS35       0.2287
     64  O        -11.9580   -1.5300    8.9180 O.2    35  LYS35      -0.2864
     65  CB       -14.2810   -0.7240   10.6850 C.3    35  LYS35       0.0298
     66  CG       -13.1950    0.2830   11.0440 C.3    35  LYS35       0.0038
     67  CD       -13.7760    1.6550   11.3900 C.3    35  LYS35       0.0206
     68  CE       -14.3970    2.3450   10.1780 C.3    35  LYS35       0.1093
     69  NZ       -15.5740    1.6160    9.6250 N.3    35  LYS35      -0.1314
     70  N         -8.3810   -8.8670    6.9910 N.3    39  TRP39      -0.1241
     71  CA        -8.5790  -10.2300    7.4730 C.3    39  TRP39       0.1605
     72  C        -10.0460  -10.5530    7.7570 C.2    39  TRP39       0.2264
     73  O        -10.3820  -11.6850    8.1100 O.2    39  TRP39      -0.2867
     74  CB        -7.7290  -10.4770    8.7240 C.3    39  TRP39       0.0550
     75  CG        -6.2240  -10.4550    8.4970 C.ar   39  TRP39       0.0003
     76  CD1       -5.2640  -10.3500    9.4600 C.ar   39  TRP39       0.0946
     77  CD2       -5.5200  -10.5740    7.2450 C.ar   39  TRP39       0.0152
     78  NE1       -4.0120  -10.3960    8.8960 N.ar   39  TRP39      -0.2442
     79  CE2       -4.1370  -10.5330    7.5400 C.ar   39  TRP39       0.0810
     80  CE3       -5.9210  -10.7130    5.9080 C.ar   39  TRP39       0.0012
     81  CZ2       -3.1540  -10.6260    6.5480 C.ar   39  TRP39       0.0191
     82  CZ3       -4.9410  -10.8060    4.9210 C.ar   39  TRP39       0.0001
     83  CH2       -3.5730  -10.7620    5.2490 C.ar   39  TRP39       0.0015
     84  N          5.0890   -1.9740   12.4380 N.3    98  GLN98      -0.1231
     85  CA         4.7160   -3.2950   11.9610 C.3    98  GLN98       0.1698
     86  C          4.2390   -3.1410   10.5220 C.2    98  GLN98       0.2592
     87  O          4.0480   -4.1300    9.8150 O.2    98  GLN98      -0.2718
     88  CB         3.5750   -3.8560   12.8060 C.3    98  GLN98       0.0381
     89  CG         3.9340   -4.0210   14.2700 C.3    98  GLN98       0.0905
     90  CD         2.7250   -4.2930   15.1310 C.2    98  GLN98       0.2608
     91  OE1        2.2350   -5.4210   15.2060 O.2    98  GLN98      -0.2717
     92  NE2        2.2230   -3.2480   15.7790 N.am   98  GLN98      -0.0878
     93  N          4.0580   -1.8940   10.0930 N.am   99  ASN99      -0.1960
     94  CA         3.5790   -1.6190    8.7450 C.3    99  ASN99       0.1819
     95  C          4.5750   -1.9450    7.6500 C.2    99  ASN99       0.2621
     96  O          5.7740   -1.7150    7.7880 O.2    99  ASN99      -0.2715
     97  CB         3.1700   -0.1490    8.6040 C.3    99  ASN99       0.1195
     98  CG         2.0480    0.2350    9.5380 C.2    99  ASN99       0.2630
     99  OD1        1.3540   -0.6230   10.0760 O.2    99  ASN99      -0.2716
    100  ND2        1.8570    1.5290    9.7250 N.am   99  ASN99      -0.0877
    101  N          4.0700   -2.4880    6.5510 N.am  100  VAL100     -0.1977
    102  CA         4.9320   -2.8080    5.4320 C.3   100  VAL100      0.1596
    103  C          4.8880   -1.6880    4.3920 C.2   100  VAL100      0.2287
    104  O          5.5610   -1.7660    3.3690 O.2   100  VAL100     -0.2864
    105  CB         4.5540   -4.1590    4.7910 C.3   100  VAL100      0.0276
    106  CG1        4.8500   -5.2840    5.7720 C.3   100  VAL100      0.0022
    107  CG2        3.0880   -4.1720    4.4110 C.3   100  VAL100      0.0022
    108  N          8.0860   -6.1540   10.3460 N.3   116  HIS116     -0.1241
    109  CA         7.5160   -7.1560    9.4550 C.3   116  HIS116      0.1621
    110  C          7.8910   -7.0370    7.9820 C.2   116  HIS116      0.2264
    111  O          7.1980   -7.5640    7.1120 O.2   116  HIS116     -0.2867
    112  CB         5.9940   -7.1400    9.6150 C.3   116  HIS116      0.0745
    113  CG         5.5400   -7.3960   11.0200 C.ar  116  HIS116      0.0817
    114  ND1        4.2530   -7.1500   11.4440 N.ar  116  HIS116     -0.2268
    115  CD2        6.2060   -7.8740   12.0990 C.ar  116  HIS116      0.1154
    116  CE1        4.1440   -7.4630   12.7240 C.ar  116  HIS116      0.1986
    117  NE2        5.3170   -7.9040   13.1460 N.ar  116  HIS116     -0.2212
    118  N          7.2010  -10.2670    6.2120 N.3   157  VAL157     -0.1245
    119  CA         7.2250  -11.4510    7.0640 C.3   157  VAL157      0.1561
    120  C          5.8050  -12.0050    7.2040 C.2   157  VAL157      0.2260
    121  O          4.8800  -11.2850    7.5890 O.2   157  VAL157     -0.2867
    122  CB         7.7770  -11.1110    8.4730 C.3   157  VAL157      0.0252
    123  CG1        7.7960  -12.3590    9.3460 C.3   157  VAL157      0.0019
    124  CG2        9.1740  -10.5240    8.3550 C.3   157  VAL157      0.0019
    125  N         -2.2710    2.9380   16.5330 N.3   185  GLY185     -0.1210
    126  CA        -2.8150    2.1540   15.4420 C.3   185  GLY185      0.1956
    127  C         -2.5370    0.6690   15.4030 C.2   185  GLY185      0.2613
    128  O         -2.4530    0.0920   14.3170 O.2   185  GLY185     -0.2717
    129  N         -2.3920    0.0330   16.5590 N.am  186  THR186     -0.1938
    130  CA        -2.1470   -1.4040   16.5480 C.3   186  THR186      0.2028
    131  C         -3.0890   -2.1440   17.4970 C.2   186  THR186      0.2643
    132  O         -3.4160   -1.6570   18.5860 O.2   186  THR186     -0.2714
    133  CB        -0.6550   -1.7240   16.8570 C.3   186  THR186      0.1808
    134  OG1       -0.4450   -3.1410   16.8300 O.3   186  THR186     -0.2208
    135  CG2       -0.2390   -1.1670   18.2090 C.3   186  THR186      0.0379
    136  N         -3.5320   -3.3190   17.0560 N.am  187  SER187     -0.1935
    137  CA        -4.4640   -4.1420   17.8180 C.3   187  SER187      0.2055
    138  C         -3.8300   -4.8690   19.0000 C.2   187  SER187      0.2642
    139  O         -4.5260   -5.4920   19.7970 O.2   187  SER187     -0.2714
    140  CB        -5.1300   -5.1470   16.8740 C.3   187  SER187      0.2130
    141  OG        -4.1540   -5.8850   16.1640 O.3   187  SER187     -0.2179
    142  N         -2.5050   -4.7980   19.0980 N.am  188  ALA188     -0.1977
    143  CA        -1.7750   -5.4200   20.1990 C.3   188  ALA188      0.1597
    144  C         -2.0290   -6.9160   20.4150 C.2   188  ALA188      0.2287
    145  O         -2.1310   -7.3760   21.5560 O.2   188  ALA188     -0.2864
    146  CB        -2.0590   -4.6560   21.4830 C.3   188  ALA188      0.0319
    147  N         -0.6180   -9.3850   17.7640 N.3   190  VAL190     -0.1245
    148  CA         0.4640  -10.0730   17.0680 C.3   190  VAL190      0.1561
    149  C          1.8060   -9.9510   17.7930 C.2   190  VAL190      0.2260
    150  O          2.2460   -8.8530   18.1340 O.2   190  VAL190     -0.2867
    151  CB         0.6140   -9.5310   15.6250 C.3   190  VAL190      0.0252
    152  CG1        1.8020  -10.1790   14.9310 C.3   190  VAL190      0.0019
    153  CG2       -0.6590   -9.8090   14.8460 C.3   190  VAL190      0.0019
    154  N         -2.7500    5.2060   21.3860 N.3   210  ILE210     -0.1231
    155  CA        -3.6370    6.0080   20.5410 C.3   210  ILE210      0.1692
    156  C         -4.3630    5.0280   19.6280 C.2   210  ILE210      0.2592
    157  O         -3.7630    4.4320   18.7370 O.2   210  ILE210     -0.2718
    158  CB        -2.8450    7.0390   19.7020 C.3   210  ILE210      0.0266
    159  CG1       -2.1060    8.0030   20.6420 C.3   210  ILE210      0.0019
    160  CG2       -3.7990    7.8120   18.7940 C.3   210  ILE210      0.0020
    161  CD1       -1.2120    9.0140   19.9350 C.3   210  ILE210      0.0001
    162  N         -5.6680    4.8750   19.8420 N.am  211  ASN211     -0.1961
    163  CA        -6.4390    3.9100   19.0770 C.3   211  ASN211      0.1804
    164  C         -7.9370    4.1720   19.3000 C.2   211  ASN211      0.2463
    165  O         -8.3640    4.4210   20.4260 O.2   211  ASN211     -0.2730
    166  CB        -6.0730    2.5080   19.5850 C.3   211  ASN211      0.1195
    167  CG        -6.4980    1.4080   18.6460 C.2   211  ASN211      0.2630
    168  OD1       -7.6490    1.3520   18.2190 O.2   211  ASN211     -0.2716
    169  ND2       -5.5690    0.5080   18.3300 N.am  211  ASN211     -0.0877
    170  N         -8.7490    4.1230   18.2280 N.am  212  PRO212     -0.2716
    171  CA       -10.1920    4.3590   18.3690 C.3   212  PRO212      0.1536
    172  C        -10.8880    3.2160   19.1080 C.2   212  PRO212      0.2598
    173  O        -12.0710    3.3080   19.4380 O.2   212  PRO212     -0.2715
    174  CB       -10.6760    4.4590   16.9220 C.3   212  PRO212      0.0310
    175  CG        -9.4600    4.8940   16.1680 C.3   212  PRO212      0.0237
    176  CD        -8.3700    4.0780   16.8080 C.3   212  PRO212      0.0939
    177  N        -10.1550    2.1360   19.3550 N.am  213  ASP213     -0.1972
    178  CA       -10.7070    0.9740   20.0420 C.3   213  ASP213      0.1709
    179  C         -9.8090    0.5950   21.2140 C.2   213  ASP213      0.2293
    180  O         -8.6420    0.9950   21.2680 O.2   213  ASP213     -0.2864
    181  CB       -10.7950   -0.2080   19.0690 C.3   213  ASP213      0.1436
    182  CG       -11.6170   -1.3650   19.6110 C.2   213  ASP213      0.3671
    183  OD1      -11.5770   -2.4550   18.9980 O.co2 213  ASP213     -0.2456
    184  OD2      -12.3080   -1.1900   20.6370 O.co2 213  ASP213     -0.2456
    185  N         -7.6940   -2.1700   23.3720 N.3   215  THR215     -0.1218
    186  CA        -6.9110   -3.3310   22.9570 C.3   215  THR215      0.1862
    187  C         -6.4240   -4.0410   24.2170 C.2   215  THR215      0.2287
    188  O         -6.6690   -3.5750   25.3280 O.2   215  THR215     -0.2866
    189  CB        -5.6650   -2.9090   22.1470 C.3   215  THR215      0.1770
    190  OG1       -4.6510   -2.4380   23.0440 O.3   215  THR215     -0.2211
    191  CG2       -6.0120   -1.7950   21.1600 C.3   215  THR215      0.0375
    192  N         -9.1440    7.7960   19.8820 N.3   227  GLY227     -0.1210
    193  CA        -9.3930    8.5780   18.6840 C.3   227  GLY227      0.1956
    194  C         -8.4940    8.1850   17.5250 C.2   227  GLY227      0.2612
    195  O         -7.7100    7.2420   17.6340 O.2   227  GLY227     -0.2717
    196  N         -8.6190    8.9000   16.4100 N.am  228  LYS228     -0.1965
    197  CA        -7.8150    8.6290   15.2200 C.3   228  LYS228      0.1728
    198  C         -6.4130    9.2080   15.3720 C.2   228  LYS228      0.2616
    199  O         -6.2420   10.3160   15.8840 O.2   228  LYS228     -0.2715
    200  CB        -8.4830    9.2250   13.9750 C.3   228  LYS228      0.0311
    201  CG        -9.8420    8.6270   13.6430 C.3   228  LYS228      0.0038
    202  CD       -10.4210    9.2730   12.3880 C.3   228  LYS228      0.0206
    203  CE       -11.7980    8.7230   12.0580 C.3   228  LYS228      0.1093
    204  NZ       -11.7640    7.2740   11.7220 N.3   228  LYS228     -0.1314
    205  N         -5.4150    8.4610   14.9070 N.am  229  ALA229     -0.1977
    206  CA        -4.0210    8.8840   15.0110 C.3   229  ALA229      0.1597
    207  C         -3.7470   10.2160   14.3310 C.2   229  ALA229      0.2287
    208  O         -2.9520   11.0160   14.8250 O.2   229  ALA229     -0.2864
    209  CB        -3.1000    7.8080   14.4290 C.3   229  ALA229      0.0319
@<TRIPOS>BOND
     1   104   103    2
     2   103   102    1
     3   107   105    1
     4   105   102    1
     5   105   106    1
     6    82    83   ar
     7    82    80   ar
     8    83    81   ar
     9    22    21    2
    10   102   101    1
    11    21    20    1
    12    80    77   ar
    13    17    16    2
    14   118   119    1
    15    43    45   ar
    16    43    41   ar
    17    81    79   ar
    18   101    95   am
    19    45    44   ar
    20    70    71    1
    21    16    19   am
    22    16    15    1
    23    31    30    2
    24   119   120    1
    25   119   122    1
    26    20    19    1
    27    20    23    1
    28    28    29    1
    29   111   110    2
    30   120   121    2
    31    77    79   ar
    32    77    75   ar
    33    41    40   ar
    34    71    72    1
    35    71    74    1
    36    79    78   ar
    37    15    14    1
    38    15    18    1
    39    95    96    2
    40    95    94    1
    41    72    73    2
    42   110   109    1
    43    30    29    1
    44    30    35   am
    45    44    42   ar
    46    23    24    1
    47    29    32    1
    48   124   122    1
    49   122   123    1
    50    75    74    1
    51    75    76   ar
    52    40    42   ar
    53    40    39    1
    54    97    94    1
    55    97    98    1
    56    94    93    1
    57    36    35    1
    58    36    39    1
    59    36    37    1
    60    78    76   ar
    61    64    63    2
    62    63    62    1
    63    38    37    2
    64    24    25    1
    65   109   112    1
    66   109   108    1
    67    98   100   am
    68    98    99    2
    69    32    33    1
    70    32    34    1
    71     8     7    2
    72   112   113    1
    73    69    68    1
    74    37    46   am
    75    87    86    2
    76     9     6    1
    77    93    86   am
    78    68    67    1
    79     6     7    1
    80     6     5    1
    81    62    65    1
    82    62    61    1
    83    60    59    2
    84    86    85    1
    85     7    10   am
    86    25    26   ar
    87    25    27   ar
    88    65    66    1
    89    46    47    1
    90   113   114   ar
    91   113   115   ar
    92    66    67    1
    93    13    12    2
    94    59    61   am
    95    59    58    1
    96   114   116   ar
    97     5     3   am
    98    12    11    1
    99   204   203    1
   100    47    48    1
   101    47    50    1
   102    10    11    1
   103     4     3    2
   104    85    84    1
   105    85    88    1
   106    49    48    2
   107   203   202    1
   108    48    57   am
   109   115   117   ar
   110     3     2    1
   111    57    58    1
   112   202   201    1
   113   116   117   ar
   114    51    50    1
   115    51    52    1
   116    88    89    1
   117    55    54    1
   118    56    54    1
   119    54    53    2
   120     2     1    1
   121   201   200    1
   122    53    52    1
   123   200   197    1
   124    89    90    1
   125   128   127    2
   126   207   208    2
   127   207   206    1
   128   209   206    1
   129   153   151    1
   130   205   206    1
   131   205   198   am
   132   152   151    1
   133    90    91    2
   134    90    92   am
   135   197   198    1
   136   197   196    1
   137   198   199    2
   138   127   126    1
   139   127   129   am
   140   126   125    1
   141   151   148    1
   142   141   140    1
   143   175   176    1
   144   175   174    1
   145   196   194   am
   146   130   129    1
   147   130   133    1
   148   130   131    1
   149   176   170    1
   150   134   133    1
   151   133   135    1
   152   140   137    1
   153   174   171    1
   154   136   131   am
   155   136   137    1
   156   148   147    1
   157   148   149    1
   158   131   132    2
   159   194   195    2
   160   194   193    1
   161   149   150    2
   162   137   138    1
   163   168   167    2
   164   170   171    1
   165   170   164   am
   166   169   167   am
   167   171   172    1
   168   167   166    1
   169   193   192    1
   170   157   156    2
   171   160   158    1
   172   183   182   ar
   173   138   142   am
   174   138   139    2
   175   181   182    1
   176   181   178    1
   177   163   164    1
   178   163   166    1
   179   163   162    1
   180   142   143    1
   181   172   177   am
   182   172   173    2
   183   164   165    2
   184   177   178    1
   185   182   184   ar
   186   156   162   am
   187   156   155    1
   188   158   155    1
   189   158   159    1
   190   161   159    1
   191   178   179    1
   192   143   144    1
   193   143   146    1
   194   144   145    2
   195   155   154    1
   196   191   189    1
   197   179   180    2
   198   189   186    1
   199   189   190    1
   200   186   185    1
   201   186   187    1
   202   187   188    2
