@<TRIPOS>MOLECULE
tmp/1m2pA00.pdb
 154 145 0 0 0
SMALL
GASTEIGER

@<TRIPOS>ATOM
      1  N         26.3400    8.0900   26.0680 N.3    39  VAL39      -0.1231
      2  CA        25.0090    7.4860   26.0450 C.3    39  VAL39       0.1692
      3  C         24.9570    6.1610   25.2830 C.2    39  VAL39       0.2593
      4  O         23.9560    5.4380   25.3300 O.2    39  VAL39      -0.2718
      5  CB        23.9500    8.4620   25.4560 C.3    39  VAL39       0.0266
      6  CG1       23.9330    9.7270   26.2710 C.3    39  VAL39       0.0020
      7  CG2       24.2320    8.7800   23.9900 C.3    39  VAL39       0.0020
      8  N         26.0420    5.8180   24.6010 N.am   40  GLY40      -0.1942
      9  CA        26.0420    4.5770   23.8620 C.3    40  GLY40       0.2014
     10  C         27.3910    4.1920   23.2960 C.2    40  GLY40       0.2639
     11  O         28.3690    4.9180   23.4380 O.2    40  GLY40      -0.2714
     12  N         27.4410    3.0390   22.6480 N.am   41  ARG41      -0.1963
     13  CA        28.6920    2.5710   22.0670 C.3    41  ARG41       0.1729
     14  C         28.4590    1.3670   21.1660 C.2    41  ARG41       0.2616
     15  O         27.4920    0.6200   21.3210 O.2    41  ARG41      -0.2715
     16  CB        29.7010    2.2270   23.1750 C.3    41  ARG41       0.0348
     17  CG        29.2070    1.1760   24.1610 C.3    41  ARG41       0.0492
     18  CD        29.5710   -0.2240   23.7010 C.3    41  ARG41       0.2205
     19  NE        28.9960   -1.2640   24.5560 N.pl3  41  ARG41      -0.0865
     20  CZ        27.7720   -1.7490   24.4050 C.cat  41  ARG41       0.5346
     21  NH1       27.0020   -1.2840   23.4280 N.pl3  41  ARG41       0.1354
     22  NH2       27.3150   -2.6950   25.2210 N.pl3  41  ARG41       0.1354
     23  N         29.3560    1.1900   20.2070 N.am   42  GLY42      -0.1955
     24  CA        29.2360    0.0840   19.2800 C.3    42  GLY42       0.1869
     25  C         30.6400   -0.2490   18.8420 C.2    42  GLY42       0.2309
     26  O         31.5610    0.4990   19.1840 O.2    42  GLY42      -0.2863
     27  N         31.9300    2.8770   16.9850 N.3    45  SER45      -0.1217
     28  CA        31.8550    4.2390   17.4870 C.3    45  SER45       0.1889
     29  C         31.3960    4.3740   18.9380 C.2    45  SER45       0.2288
     30  O         30.9740    3.4050   19.5700 O.2    45  SER45      -0.2866
     31  CB        30.9140    5.0420   16.5870 C.3    45  SER45       0.2089
     32  OG        29.5610    4.6850   16.8520 O.3    45  SER45      -0.2183
     33  N         29.0780    7.1230   21.4020 N.3    47  VAL47      -0.1245
     34  CA        28.1060    8.1940   21.2950 C.3    47  VAL47       0.1561
     35  C         27.8720    8.9750   22.5840 C.2    47  VAL47       0.2260
     36  O         27.7060    8.4100   23.6760 O.2    47  VAL47      -0.2867
     37  CB        26.7910    7.6090   20.7530 C.3    47  VAL47       0.0252
     38  CG1       25.7860    8.6980   20.4300 C.3    47  VAL47       0.0019
     39  CG2       27.1080    6.8010   19.5250 C.3    47  VAL47       0.0019
     40  N         23.8870   15.3700   19.4340 N.3    60  ILE60      -0.1245
     41  CA        24.4470   14.0330   19.6030 C.3    60  ILE60       0.1561
     42  C         25.8080   14.0010   18.9230 C.2    60  ILE60       0.2260
     43  O         25.9480   14.4190   17.7740 O.2    60  ILE60      -0.2867
     44  CB        23.5410   12.9260   18.9940 C.3    60  ILE60       0.0252
     45  CG1       22.2270   12.8290   19.7880 C.3    60  ILE60       0.0019
     46  CG2       24.2990   11.5930   18.9710 C.3    60  ILE60       0.0019
     47  CD1       22.3830   12.4300   21.2510 C.3    60  ILE60       0.0001
     48  N         28.7580   11.5720   17.7230 N.3    62  LYS62      -0.1245
     49  CA        29.1730   10.2080   17.3850 C.3    62  LYS62       0.1561
     50  C         30.6470   10.2230   16.9890 C.2    62  LYS62       0.2260
     51  O         30.9860   10.6210   15.8740 O.2    62  LYS62      -0.2867
     52  CB        28.3120    9.6680   16.2170 C.3    62  LYS62       0.0271
     53  CG        28.6480    8.2460   15.7490 C.3    62  LYS62       0.0035
     54  CD        27.7590    7.8490   14.5680 C.3    62  LYS62       0.0206
     55  CE        27.8910    6.3720   14.2490 C.3    62  LYS62       0.1093
     56  NZ        26.9590    5.9370   13.1480 N.3    62  LYS62      -0.1314
     57  N         29.0430    6.6610    4.8710 N.3    75  GLU75      -0.1245
     58  CA        28.0470    7.0240    5.8730 C.3    75  GLU75       0.1567
     59  C         27.6440    8.4740    5.7700 C.2    75  GLU75       0.2260
     60  O         26.4680    8.7930    5.9150 O.2    75  GLU75      -0.2867
     61  CB        28.5260    6.7430    7.3040 C.3    75  GLU75       0.0388
     62  CG        27.4350    6.9950    8.3520 C.3    75  GLU75       0.1160
     63  CD        27.8790    6.6380    9.7610 C.2    75  GLU75       0.3649
     64  OE1       28.9130    5.9470    9.9050 O.co2  75  GLU75      -0.2457
     65  OE2       27.1860    7.0370   10.7280 O.co2  75  GLU75      -0.2457
     66  N         17.4310   10.1400   11.2700 N.3    89  VAL89      -0.1245
     67  CA        18.2990   10.9630   12.1090 C.3    89  VAL89       0.1561
     68  C         18.8890   12.0750   11.2220 C.2    89  VAL89       0.2260
     69  O         19.1950   11.8570   10.0490 O.2    89  VAL89      -0.2867
     70  CB        19.4460   10.1100   12.7370 C.3    89  VAL89       0.0252
     71  CG1       20.4140    9.6790   11.6590 C.3    89  VAL89       0.0019
     72  CG2       20.1630   10.8920   13.8430 C.3    89  VAL89       0.0019
     73  N         24.8190   15.1530   15.1970 N.3   107  PHE107     -0.1241
     74  CA        23.4060   14.9560   14.8600 C.3   107  PHE107      0.1605
     75  C         22.4820   15.7980   15.7400 C.2   107  PHE107      0.2264
     76  O         22.9050   16.4050   16.7320 O.2   107  PHE107     -0.2867
     77  CB        23.0150   13.4760   15.0470 C.3   107  PHE107      0.0534
     78  CG        23.7970   12.5170   14.1900 C.ar  107  PHE107     -0.0203
     79  CD1       23.4440   12.2950   12.8500 C.ar  107  PHE107     -0.0042
     80  CD2       24.8880   11.8290   14.7160 C.ar  107  PHE107     -0.0042
     81  CE1       24.1660   11.4130   12.0590 C.ar  107  PHE107     -0.0003
     82  CE2       25.6140   10.9460   13.9310 C.ar  107  PHE107     -0.0003
     83  CZ        25.2500   10.7360   12.5940 C.ar  107  PHE107     -0.0000
     84  N         18.6900   13.3190   20.1790 N.3   110  VAL110     -0.1245
     85  CA        17.6960   12.2650   20.1700 C.3   110  VAL110      0.1561
     86  C         17.5450   11.6870   21.5720 C.2   110  VAL110      0.2260
     87  O         18.5260   11.2520   22.1750 O.2   110  VAL110     -0.2867
     88  CB        18.1100   11.1080   19.2020 C.3   110  VAL110      0.0252
     89  CG1       17.0840    9.9750   19.2400 C.3   110  VAL110      0.0019
     90  CG2       18.2510   11.6330   17.7870 C.3   110  VAL110      0.0019
     91  N         16.1850    8.7740   24.1080 N.3   112  ASN112     -0.1240
     92  CA        15.9560    7.3480   23.9160 C.3   112  ASN112      0.1653
     93  C         15.8150    6.5370   25.1990 C.2   112  ASN112      0.2266
     94  O         16.3260    6.9170   26.2500 O.2   112  ASN112     -0.2867
     95  CB        17.0920    6.7680   23.0570 C.3   112  ASN112      0.1155
     96  CG        17.3350    5.2860   23.3130 C.2   112  ASN112      0.2627
     97  OD1       16.4870    4.4390   23.0030 O.2   112  ASN112     -0.2716
     98  ND2       18.4980    4.9650   23.8890 N.am  112  ASN112     -0.0877
     99  N         18.1900   -1.7710   18.5540 N.3   154  HIS154     -0.1226
    100  CA        19.2850   -0.8870   18.9590 C.3   154  HIS154      0.1752
    101  C         19.4540    0.3020   18.0160 C.2   154  HIS154      0.2596
    102  O         20.0050    1.3270   18.4260 O.2   154  HIS154     -0.2718
    103  CB        20.6100   -1.6430   18.9800 C.3   154  HIS154      0.0759
    104  CG        20.5290   -3.0130   19.5810 C.ar  154  HIS154      0.0818
    105  ND1       19.7320   -4.0150   19.0570 N.ar  154  HIS154     -0.2268
    106  CD2       21.1730   -3.5550   20.6410 C.ar  154  HIS154      0.1154
    107  CE1       19.8950   -5.1130   19.7660 C.ar  154  HIS154      0.1986
    108  NE2       20.7640   -4.8610   20.7320 N.ar  154  HIS154     -0.2212
    109  N         19.0150    0.1670   16.7650 N.am  155  ASN155     -0.1974
    110  CA        19.1530    1.2550   15.7880 C.3   155  ASN155      0.1688
    111  C         17.8660    2.0260   15.5120 C.2   155  ASN155      0.2292
    112  O         17.7490    2.7610   14.5120 O.2   155  ASN155     -0.2864
    113  CB        19.7300    0.7260   14.4760 C.3   155  ASN155      0.1181
    114  CG        21.2180    0.4420   14.5710 C.2   155  ASN155      0.2629
    115  OD1       21.9000    0.9660   15.4610 O.2   155  ASN155     -0.2716
    116  ND2       21.7270   -0.3750   13.6660 N.am  155  ASN155     -0.0877
    117  N         15.7650    4.5620   17.6650 N.3   157  MET157     -0.1245
    118  CA        15.6270    5.3830   18.8640 C.3   157  MET157      0.1570
    119  C         14.1970    5.8240   19.0260 C.2   157  MET157      0.2261
    120  O         13.5540    6.2390   18.0640 O.2   157  MET157     -0.2867
    121  CB        16.5280    6.6180   18.8040 C.3   157  MET157      0.0387
    122  CG        18.0200    6.2790   18.8590 C.3   157  MET157      0.0595
    123  SD        18.5460    5.3030   20.3380 S.3   157  MET157     -0.1393
    124  CE        18.4790    3.5670   19.7400 C.3   157  MET157      0.0692
    125  N         18.5520    5.2450   13.1850 N.3   168  ILE168     -0.1231
    126  CA        19.9360    5.6630   13.3470 C.3   168  ILE168      0.1692
    127  C         20.9720    4.6670   12.8080 C.2   168  ILE168      0.2592
    128  O         20.6360    3.6140   12.2560 O.2   168  ILE168     -0.2718
    129  CB        20.2280    5.9560   14.8670 C.3   168  ILE168      0.0266
    130  CG1       20.0740    4.6510   15.6660 C.3   168  ILE168      0.0019
    131  CG2       19.2650    7.0570   15.3900 C.3   168  ILE168      0.0020
    132  CD1       20.8030    4.6000   16.9610 C.3   168  ILE168      0.0001
    133  N         22.2360    5.0430   12.9860 N.am  169  ASP169     -0.1960
    134  CA        23.4200    4.3020   12.5460 C.3   169  ASP169      0.1840
    135  C         23.4050    3.7850   11.1070 C.2   169  ASP169      0.2622
    136  O         23.1500    2.6060   10.8270 O.2   169  ASP169     -0.2715
    137  CB        23.7420    3.1470   13.4910 C.3   169  ASP169      0.1450
    138  CG        25.2010    2.6840   13.3660 C.2   169  ASP169      0.3671
    139  OD1       25.8850    3.1110   12.4160 O.co2 169  ASP169     -0.2456
    140  OD2       25.6690    1.8950   14.2120 O.co2 169  ASP169     -0.2456
    141  N         23.7100    4.7030   10.1940 N.am  170  TRP170     -0.1974
    142  CA        23.7790    4.4250    8.7730 C.3   170  TRP170      0.1640
    143  C         25.1940    4.0340    8.3460 C.2   170  TRP170      0.2290
    144  O         25.5770    4.1830    7.1830 O.2   170  TRP170     -0.2864
    145  CB        23.2830    5.6580    8.0200 C.3   170  TRP170      0.0576
    146  CG        21.8410    5.9340    8.3730 C.ar  170  TRP170      0.0006
    147  CD1       21.3660    6.5430    9.5080 C.ar  170  TRP170      0.0946
    148  CD2       20.6860    5.5160    7.6370 C.ar  170  TRP170      0.0152
    149  NE1       19.9970    6.5220    9.5240 N.ar  170  TRP170     -0.2442
    150  CE2       19.5480    5.8950    8.3910 C.ar  170  TRP170      0.0810
    151  CE3       20.5000    4.8430    6.4140 C.ar  170  TRP170      0.0012
    152  CZ2       18.2440    5.6390    7.9600 C.ar  170  TRP170      0.0191
    153  CZ3       19.1960    4.5890    5.9850 C.ar  170  TRP170      0.0001
    154  CH2       18.0840    4.9820    6.7590 C.ar  170  TRP170      0.0015
@<TRIPOS>BOND
     1    57    58    1
     2    59    58    1
     3    59    60    2
     4    58    61    1
     5   153   151   ar
     6   153   154   ar
     7   151   148   ar
     8   154   152   ar
     9   144   143    2
    10    61    62    1
    11   148   146   ar
    12   148   150   ar
    13   152   150   ar
    14   145   146    1
    15   145   142    1
    16   143   142    1
    17    62    63    1
    18   146   147   ar
    19   150   149   ar
    20   142   141    1
    21   147   149   ar
    22    63    64   ar
    23    63    65   ar
    24    69    68    2
    25   141   135   am
    26   136   135    2
    27   135   134    1
    28    68    67    1
    29    66    67    1
    30    71    70    1
    31    81    83   ar
    32    81    79   ar
    33    67    70    1
    34   128   127    2
    35   139   138   ar
    36   134   133    1
    37   134   137    1
    38    83    82   ar
    39    70    72    1
    40   127   133   am
    41   127   126    1
    42    79    78   ar
    43    56    55    1
    44   125   126    1
    45   126   129    1
    46   138   137    1
    47   138   140   ar
    48   116   114   am
    49    82    80   ar
    50    78    80   ar
    51    78    77    1
    52    55    54    1
    53   113   114    1
    54   113   110    1
    55   112   111    2
    56    54    53    1
    57   114   115    2
    58    74    77    1
    59    74    73    1
    60    74    75    1
    61   129   131    1
    62   129   130    1
    63   111   110    1
    64   130   132    1
    65    75    76    2
    66    53    52    1
    67   110   109    1
    68    51    50    2
    69    52    49    1
    70    31    32    1
    71    31    28    1
    72   109   101   am
    73    27    28    1
    74    50    49    1
    75    49    48    1
    76    28    29    1
    77   117   118    1
    78    43    42    2
    79    90    88    1
    80   101   102    2
    81   101   100    1
    82   120   119    2
    83    99   100    1
    84   121   122    1
    85   121   118    1
    86    25    26    2
    87    25    24    1
    88   122   123    1
    89   118   119    1
    90    42    41    1
    91    29    30    2
    92   100   103    1
    93    46    44    1
    94   103   104    1
    95    44    41    1
    96    44    45    1
    97   105   104   ar
    98   105   107   ar
    99    88    89    1
   100    88    85    1
   101    24    23    1
   102    40    41    1
   103    39    37    1
   104   104   106   ar
   105   124   123    1
   106   107   108   ar
   107    45    47    1
   108    85    84    1
   109    85    86    1
   110    23    14   am
   111    38    37    1
   112   106   108   ar
   113    37    34    1
   114    14    15    2
   115    14    13    1
   116    34    33    1
   117    34    35    1
   118    86    87    2
   119    13    12    1
   120    13    16    1
   121    35    36    2
   122    12    10   am
   123    97    96    2
   124    95    96    1
   125    95    92    1
   126    16    17    1
   127    10    11    2
   128    10     9    1
   129    96    98   am
   130    21    20    1
   131    18    17    1
   132    18    19    1
   133     9     8    1
   134    92    91    1
   135    92    93    1
   136     7     5    1
   137    20    19    2
   138    20    22    1
   139     8     3   am
   140    93    94    2
   141     3     4    2
   142     3     2    1
   143     5     2    1
   144     5     6    1
   145     2     1    1
