@<TRIPOS>MOLECULE
tmp/1m2qA00.pdb
 155 147 0 0 0
SMALL
GASTEIGER

@<TRIPOS>ATOM
      1  N         29.3800    7.5080   23.8540 N.3    39  VAL39      -0.1231
      2  CA        28.0240    6.9720   23.9030 C.3    39  VAL39       0.1692
      3  C         27.9070    5.5710   23.3120 C.2    39  VAL39       0.2593
      4  O         26.9290    4.8690   23.5560 O.2    39  VAL39      -0.2718
      5  CB        27.0330    7.9130   23.1790 C.3    39  VAL39       0.0266
      6  CG1       27.5910    8.3030   21.8310 C.3    39  VAL39       0.0020
      7  CG2       25.6770    7.2360   23.0130 C.3    39  VAL39       0.0020
      8  N         28.8940    5.1550   22.5360 N.am   40  GLY40      -0.1942
      9  CA        28.8180    3.8270   21.9730 C.3    40  GLY40       0.2014
     10  C         29.8440    3.5810   20.8980 C.2    40  GLY40       0.2639
     11  O         30.8760    4.2540   20.8260 O.2    40  GLY40      -0.2714
     12  N         29.5530    2.6000   20.0560 N.am   41  ARG41      -0.1963
     13  CA        30.4460    2.2570   18.9700 C.3    41  ARG41       0.1729
     14  C         29.7960    1.3690   17.9330 C.2    41  ARG41       0.2617
     15  O         29.0480    0.4510   18.2650 O.2    41  ARG41      -0.2715
     16  CB        31.6920    1.5550   19.5020 C.3    41  ARG41       0.0348
     17  CG        32.5240    0.9220   18.3990 C.3    41  ARG41       0.0492
     18  CD        33.9410    0.6340   18.8510 C.3    41  ARG41       0.2205
     19  NE        33.9360   -0.1560   20.0730 N.pl3  41  ARG41      -0.0865
     20  CZ        33.4230   -1.3780   20.1670 C.cat  41  ARG41       0.5346
     21  NH1       32.8740   -1.9620   19.1040 N.pl3  41  ARG41       0.1354
     22  NH2       33.4440   -2.0120   21.3310 N.pl3  41  ARG41       0.1354
     23  N         30.0830    1.6610   16.6700 N.am   42  GLY42      -0.1940
     24  CA        29.5640    0.8470   15.5940 C.3    42  GLY42       0.2014
     25  C         30.5890   -0.2570   15.4350 C.2    42  GLY42       0.2638
     26  O         31.2890   -0.6010   16.3890 O.2    42  GLY42      -0.2714
     27  N         30.7010   -0.8150   14.2380 N.am   43  LYS43      -0.1977
     28  CA        31.6720   -1.8740   14.0180 C.3    43  LYS43       0.1596
     29  C         33.0370   -1.2220   13.8870 C.2    43  LYS43       0.2287
     30  O         34.0200   -1.6950   14.4510 O.2    43  LYS43      -0.2864
     31  CB        31.3020   -2.6770   12.7660 C.3    43  LYS43       0.0298
     32  CG        30.0470   -3.5420   12.9610 C.3    43  LYS43       0.0038
     33  CD        28.9200   -2.7430   13.6270 C.3    43  LYS43       0.0206
     34  CE        27.6880   -3.5740   13.9420 C.3    43  LYS43       0.1093
     35  NZ        26.6740   -2.7390   14.6580 N.3    43  LYS43      -0.1314
     36  N         33.4880    2.4680   14.2870 N.3    45  SER45      -0.1217
     37  CA        33.2170    3.8580   14.5790 C.3    45  SER45       0.1889
     38  C         33.0650    4.0670   16.0720 C.2    45  SER45       0.2288
     39  O         32.5360    3.2110   16.7780 O.2    45  SER45      -0.2866
     40  CB        31.9370    4.3090   13.8810 C.3    45  SER45       0.2089
     41  OG        30.8010    3.7400   14.5020 O.3    45  SER45      -0.2183
     42  N         31.3870    6.5970   18.7570 N.3    47  VAL47      -0.1245
     43  CA        30.3590    7.6230   18.8070 C.3    47  VAL47       0.1561
     44  C         30.3290    8.3770   20.1230 C.2    47  VAL47       0.2260
     45  O         30.3680    7.7710   21.1940 O.2    47  VAL47      -0.2867
     46  CB        28.9740    7.0000   18.5550 C.3    47  VAL47       0.0252
     47  CG1       27.8960    8.0650   18.5860 C.3    47  VAL47       0.0019
     48  CG2       28.9850    6.2810   17.2210 C.3    47  VAL47       0.0019
     49  N         26.0050   15.0370   17.7490 N.3    60  ILE60      -0.1245
     50  CA        26.5340   13.6970   17.8570 C.3    60  ILE60       0.1561
     51  C         27.8410   13.6840   17.0880 C.2    60  ILE60       0.2260
     52  O         27.8880   14.1480   15.9540 O.2    60  ILE60      -0.2867
     53  CB        25.5820   12.6810   17.1980 C.3    60  ILE60       0.0252
     54  CG1       24.2650   12.6150   17.9700 C.3    60  ILE60       0.0019
     55  CG2       26.2580   11.3210   17.0950 C.3    60  ILE60       0.0019
     56  CD1       24.3700   11.9340   19.3140 C.3    60  ILE60       0.0001
     57  N         30.5630   11.2080   15.5090 N.3    62  LYS62      -0.1245
     58  CA        30.8800    9.8250   15.1430 C.3    62  LYS62       0.1561
     59  C         32.2560    9.8020   14.4880 C.2    62  LYS62       0.2260
     60  O         32.4230   10.3050   13.3810 O.2    62  LYS62      -0.2867
     61  CB        29.8160    9.2880   14.1640 C.3    62  LYS62       0.0271
     62  CG        30.0860    7.9180   13.5190 C.3    62  LYS62       0.0035
     63  CD        28.9270    7.5350   12.5690 C.3    62  LYS62       0.0206
     64  CE        28.9700    6.0590   12.1570 C.3    62  LYS62       0.1093
     65  NZ        27.9290    5.6800   11.1550 N.3    62  LYS62      -0.1314
     66  N         29.3030    6.4950    2.8250 N.3    75  GLU75      -0.1245
     67  CA        28.3960    6.9160    3.8910 C.3    75  GLU75       0.1567
     68  C         28.0830    8.4170    3.8420 C.2    75  GLU75       0.2260
     69  O         26.9370    8.8270    4.0360 O.2    75  GLU75      -0.2867
     70  CB        28.9740    6.5490    5.2630 C.3    75  GLU75       0.0388
     71  CG        28.1960    7.1420    6.4320 C.3    75  GLU75       0.1160
     72  CD        28.6000    6.5580    7.7680 C.2    75  GLU75       0.3649
     73  OE1       29.6800    5.9300    7.8430 O.co2  75  GLU75      -0.2457
     74  OE2       27.8410    6.7360    8.7460 O.co2  75  GLU75      -0.2457
     75  N         18.4850   10.1730   10.1170 N.3    89  VAL89      -0.1245
     76  CA        19.4260   11.0270   10.8310 C.3    89  VAL89       0.1561
     77  C         19.9860   12.1020    9.8930 C.2    89  VAL89       0.2260
     78  O         20.2140   11.8450    8.7090 O.2    89  VAL89      -0.2867
     79  CB        20.5860   10.1950   11.4500 C.3    89  VAL89       0.0252
     80  CG1       21.4450    9.5940   10.3610 C.3    89  VAL89       0.0019
     81  CG2       21.4110   11.0680   12.3770 C.3    89  VAL89       0.0019
     82  N         26.4400   14.7750   13.5450 N.3   107  PHE107     -0.1241
     83  CA        25.0240   14.6100   13.2770 C.3   107  PHE107      0.1605
     84  C         24.2330   15.4670   14.2210 C.2   107  PHE107      0.2264
     85  O         24.7410   15.9140   15.2440 O.2   107  PHE107     -0.2867
     86  CB        24.6070   13.1520   13.4820 C.3   107  PHE107      0.0534
     87  CG        25.2400   12.2000   12.5240 C.ar  107  PHE107     -0.0203
     88  CD1       24.7040   12.0100   11.2600 C.ar  107  PHE107     -0.0042
     89  CD2       26.3870   11.4950   12.8810 C.ar  107  PHE107     -0.0042
     90  CE1       25.2960   11.1330   10.3630 C.ar  107  PHE107     -0.0003
     91  CE2       26.9940   10.6090   11.9850 C.ar  107  PHE107     -0.0003
     92  CZ        26.4450   10.4280   10.7230 C.ar  107  PHE107     -0.0000
     93  N         20.3560   13.0950   18.6710 N.3   110  VAL110     -0.1245
     94  CA        19.2450   12.1570   18.7290 C.3   110  VAL110      0.1561
     95  C         19.2600   11.5270   20.1060 C.2   110  VAL110      0.2260
     96  O         20.2580   10.9340   20.5230 O.2   110  VAL110     -0.2867
     97  CB        19.3720   11.0090   17.7160 C.3   110  VAL110      0.0252
     98  CG1       18.1290   10.1370   17.7530 C.3   110  VAL110      0.0019
     99  CG2       19.6320   11.5610   16.3210 C.3   110  VAL110      0.0019
    100  N         19.2100   -1.7810   17.2530 N.3   154  HIS154     -0.1226
    101  CA        20.3540   -0.9490   17.5930 C.3   154  HIS154      0.1752
    102  C         20.5070    0.2800   16.6970 C.2   154  HIS154      0.2596
    103  O         21.0790    1.2890   17.1210 O.2   154  HIS154     -0.2718
    104  CB        21.6210   -1.8080   17.5320 C.3   154  HIS154      0.0759
    105  CG        21.3930   -3.2290   17.9550 C.ar  154  HIS154      0.0818
    106  ND1       22.0450   -3.8050   19.0240 N.ar  154  HIS154     -0.2268
    107  CD2       20.5450   -4.1750   17.4780 C.ar  154  HIS154      0.1154
    108  CE1       21.6080   -5.0420   19.1880 C.ar  154  HIS154      0.1986
    109  NE2       20.6960   -5.2910   18.2630 N.ar  154  HIS154     -0.2212
    110  N         20.0040    0.2010   15.4640 N.am  155  ASN155     -0.1974
    111  CA        20.1030    1.3100   14.5150 C.3   155  ASN155      0.1688
    112  C         18.8160    2.1060   14.3540 C.2   155  ASN155      0.2292
    113  O         18.6600    2.8740   13.4090 O.2   155  ASN155     -0.2864
    114  CB        20.5700    0.8020   13.1490 C.3   155  ASN155      0.1181
    115  CG        22.0020    0.3610   13.1710 C.2   155  ASN155      0.2629
    116  OD1       22.7970    0.8600   13.9720 O.2   155  ASN155     -0.2716
    117  ND2       22.3550   -0.5670   12.2930 N.am  155  ASN155     -0.0877
    118  N         16.8860    4.5810   16.6620 N.3   157  MET157     -0.1245
    119  CA        16.8140    5.3280   17.9060 C.3   157  MET157      0.1570
    120  C         15.4680    5.9840   18.1150 C.2   157  MET157      0.2261
    121  O         14.9580    6.6930   17.2500 O.2   157  MET157     -0.2867
    122  CB        17.9410    6.3530   17.9760 C.3   157  MET157      0.0387
    123  CG        19.2910    5.6710   18.1050 C.3   157  MET157      0.0595
    124  SD        20.5810    6.8240   18.4310 S.3   157  MET157     -0.1393
    125  CE        20.3480    7.9320   17.0580 C.3   157  MET157      0.0692
    126  N         19.4940    5.2710   12.0690 N.3   168  ILE168     -0.1231
    127  CA        20.9050    5.6360   12.0900 C.3   168  ILE168      0.1692
    128  C         21.8620    4.6400   11.4380 C.2   168  ILE168      0.2592
    129  O         21.4520    3.6220   10.8850 O.2   168  ILE168     -0.2718
    130  CB        21.3820    5.8960   13.5420 C.3   168  ILE168      0.0266
    131  CG1       21.3150    4.5990   14.3570 C.3   168  ILE168      0.0019
    132  CG2       20.5080    6.9610   14.1780 C.3   168  ILE168      0.0020
    133  CD1       22.0000    4.6650   15.6960 C.3   168  ILE168      0.0001
    134  N         23.1480    4.9720   11.5400 N.am  169  ASP169     -0.1960
    135  CA        24.2710    4.2250   10.9830 C.3   169  ASP169      0.1840
    136  C         24.1410    3.7280    9.5490 C.2   169  ASP169      0.2622
    137  O         23.8430    2.5590    9.2910 O.2   169  ASP169     -0.2715
    138  CB        24.6650    3.0490   11.8680 C.3   169  ASP169      0.1450
    139  CG        26.1310    2.7000   11.7100 C.2   169  ASP169      0.3671
    140  OD1       26.7300    3.1420   10.7030 O.co2 169  ASP169     -0.2456
    141  OD2       26.6920    1.9960   12.5800 O.co2 169  ASP169     -0.2456
    142  N         24.4120    4.6310    8.6200 N.am  170  TRP170     -0.1974
    143  CA        24.3540    4.3370    7.2020 C.3   170  TRP170      0.1640
    144  C         25.7330    3.9300    6.6800 C.2   170  TRP170      0.2290
    145  O         26.0430    4.0930    5.5010 O.2   170  TRP170     -0.2864
    146  CB        23.8190    5.5660    6.4760 C.3   170  TRP170      0.0576
    147  CG        22.4480    5.9160    6.9600 C.ar  170  TRP170      0.0006
    148  CD1       22.1210    6.5320    8.1310 C.ar  170  TRP170      0.0946
    149  CD2       21.2150    5.5720    6.3310 C.ar  170  TRP170      0.0152
    150  NE1       20.7580    6.5900    8.2750 N.ar  170  TRP170     -0.2442
    151  CE2       20.1760    6.0060    7.1820 C.ar  170  TRP170      0.0810
    152  CE3       20.8850    4.9330    5.1270 C.ar  170  TRP170      0.0012
    153  CZ2       18.8230    5.8240    6.8680 C.ar  170  TRP170      0.0191
    154  CZ3       19.5410    4.7510    4.8140 C.ar  170  TRP170      0.0001
    155  CH2       18.5280    5.1960    5.6820 C.ar  170  TRP170      0.0015
@<TRIPOS>BOND
     1    66    67    1
     2    68    67    1
     3    68    69    2
     4    67    70    1
     5   154   152   ar
     6   154   155   ar
     7   152   149   ar
     8    70    71    1
     9   145   144    2
    10   155   153   ar
    11   149   147   ar
    12   149   151   ar
    13    71    72    1
    14   146   147    1
    15   146   143    1
    16   144   143    1
    17   153   151   ar
    18   147   148   ar
    19   151   150   ar
    20   143   142    1
    21    72    73   ar
    22    72    74   ar
    23   148   150   ar
    24   142   136   am
    25    78    77    2
    26   137   136    2
    27   136   135    1
    28    77    76    1
    29    75    76    1
    30    80    79    1
    31    90    92   ar
    32    90    88   ar
    33   140   139   ar
    34    92    91   ar
    35    76    79    1
    36   129   128    2
    37   135   134    1
    38   135   138    1
    39    65    64    1
    40    88    87   ar
    41   128   134   am
    42   128   127    1
    43    79    81    1
    44   139   138    1
    45   139   141   ar
    46    91    89   ar
    47   126   127    1
    48   127   130    1
    49    64    63    1
    50   117   115   am
    51    87    89   ar
    52    87    86    1
    53    63    62    1
    54    31    32    1
    55    31    28    1
    56    32    33    1
    57   114   115    1
    58   114   111    1
    59   115   116    2
    60    83    86    1
    61    83    82    1
    62    83    84    1
    63    60    59    2
    64   113   112    2
    65    62    61    1
    66   130   132    1
    67   130   131    1
    68    33    34    1
    69    40    41    1
    70    40    37    1
    71    29    28    1
    72    29    30    2
    73    34    35    1
    74    28    27    1
    75    61    58    1
    76    84    85    2
    77    27    25   am
    78    36    37    1
    79   112   111    1
    80   131   133    1
    81    59    58    1
    82   111   110    1
    83    37    38    1
    84    58    57    1
    85    25    24    1
    86    25    26    2
    87   110   102   am
    88    24    23    1
    89    52    51    2
    90    38    39    2
    91    99    97    1
    92   118   119    1
    93    23    14   am
    94   102   103    2
    95   102   101    1
    96   125   124    1
    97    51    50    1
    98    55    53    1
    99    53    50    1
   100    53    54    1
   101    48    46    1
   102   121   120    2
   103   100   101    1
   104   107   105   ar
   105   107   109   ar
   106   104   101    1
   107   104   105    1
   108    97    98    1
   109    97    94    1
   110    49    50    1
   111   119   122    1
   112   119   120    1
   113    14    15    2
   114    14    13    1
   115   105   106   ar
   116    54    56    1
   117   122   123    1
   118   123   124    1
   119   109   108   ar
   120    17    18    1
   121    17    16    1
   122    46    47    1
   123    46    43    1
   124    93    94    1
   125    94    95    1
   126    42    43    1
   127    43    44    1
   128    18    19    1
   129    13    16    1
   130    13    12    1
   131   106   108   ar
   132    21    20    1
   133    12    10   am
   134    19    20    2
   135    95    96    2
   136    44    45    2
   137    20    22    1
   138    11    10    2
   139    10     9    1
   140     6     5    1
   141     9     8    1
   142     8     3   am
   143     7     5    1
   144     5     2    1
   145     3     4    2
   146     3     2    1
   147     1     2    1
