@<TRIPOS>MOLECULE
tmp/1m2rA00.pdb
 121 115 0 0 0
SMALL
GASTEIGER

@<TRIPOS>ATOM
      1  N         27.2710    7.5990   24.8100 N.3    39  VAL39      -0.1231
      2  CA        25.9750    6.9320   24.7690 C.3    39  VAL39       0.1692
      3  C         26.0100    5.6390   23.9590 C.2    39  VAL39       0.2592
      4  O         25.2040    4.7400   24.1900 O.2    39  VAL39      -0.2718
      5  CB        24.9110    7.8480   24.1560 C.3    39  VAL39       0.0266
      6  CG1       24.6480    9.0240   25.0770 C.3    39  VAL39       0.0020
      7  CG2       25.3780    8.3390   22.7930 C.3    39  VAL39       0.0020
      8  N         26.9460    5.5490   23.0200 N.am   40  GLY40      -0.1957
      9  CA        27.0410    4.3680   22.1870 C.3    40  GLY40       0.1869
     10  C         28.4670    4.0120   21.8520 C.2    40  GLY40       0.2309
     11  O         29.3710    4.8460   21.9160 O.2    40  GLY40      -0.2863
     12  N         29.8460    6.7860   19.8990 N.3    47  VAL47      -0.1245
     13  CA        28.8310    7.8230   19.8650 C.3    47  VAL47       0.1561
     14  C         28.6910    8.5450   21.1980 C.2    47  VAL47       0.2260
     15  O         28.5240    7.9200   22.2460 O.2    47  VAL47      -0.2867
     16  CB        27.4730    7.2420   19.4570 C.3    47  VAL47       0.0252
     17  CG1       26.4470    8.3500   19.3580 C.3    47  VAL47       0.0019
     18  CG2       27.6120    6.5050   18.1340 C.3    47  VAL47       0.0019
     19  N         24.4660   14.8300   18.6510 N.3    60  ILE60      -0.1245
     20  CA        25.0900   13.5300   18.8060 C.3    60  ILE60       0.1561
     21  C         26.3670   13.5970   17.9890 C.2    60  ILE60       0.2260
     22  O         26.3630   14.1080   16.8760 O.2    60  ILE60      -0.2867
     23  CB        24.1860   12.3950   18.2680 C.3    60  ILE60       0.0252
     24  CG1       23.0720   12.1070   19.2740 C.3    60  ILE60       0.0019
     25  CG2       25.0140   11.1480   18.0030 C.3    60  ILE60       0.0019
     26  CD1       23.5770   11.5670   20.6080 C.3    60  ILE60       0.0001
     27  N         29.2710   11.2540   16.4090 N.3    62  LYS62      -0.1245
     28  CA        29.6400    9.8830   16.0700 C.3    62  LYS62       0.1561
     29  C         31.0530    9.9110   15.5160 C.2    62  LYS62       0.2260
     30  O         31.2840   10.3320   14.3840 O.2    62  LYS62      -0.2867
     31  CB        28.6560    9.3110   15.0380 C.3    62  LYS62       0.0271
     32  CG        29.0260    7.9340   14.4710 C.3    62  LYS62       0.0035
     33  CD        27.8420    7.3560   13.6810 C.3    62  LYS62       0.0206
     34  CE        28.2390    6.1570   12.8280 C.3    62  LYS62       0.1093
     35  NZ        27.2590    5.9050   11.7240 N.3    62  LYS62      -0.1314
     36  N         17.9110    9.9450   10.2780 N.3    89  VAL89      -0.1245
     37  CA        18.7900   10.8090   11.0550 C.3    89  VAL89       0.1561
     38  C         19.3550   11.8940   10.1450 C.2    89  VAL89       0.2260
     39  O         19.7300   11.6230    9.0030 O.2    89  VAL89      -0.2867
     40  CB        19.9430    9.9970   11.7040 C.3    89  VAL89       0.0252
     41  CG1       20.9570    9.5850   10.6570 C.3    89  VAL89       0.0019
     42  CG2       20.5830   10.8080   12.8020 C.3    89  VAL89       0.0019
     43  N         25.1540   14.8720   14.4150 N.3   107  PHE107     -0.1227
     44  CA        23.7460   14.6440   14.1250 C.3   107  PHE107      0.1736
     45  C         22.7920   15.3340   15.0860 C.2   107  PHE107      0.2595
     46  O         23.1650   15.7640   16.1800 O.2   107  PHE107     -0.2718
     47  CB        23.4220   13.1480   14.1880 C.3   107  PHE107      0.0547
     48  CG        24.1470   12.3130   13.1790 C.ar  107  PHE107     -0.0202
     49  CD1       23.6960   12.2410   11.8670 C.ar  107  PHE107     -0.0042
     50  CD2       25.2480   11.5500   13.5560 C.ar  107  PHE107     -0.0042
     51  CE1       24.3300   11.4130   10.9410 C.ar  107  PHE107     -0.0003
     52  CE2       25.8910   10.7200   12.6390 C.ar  107  PHE107     -0.0003
     53  CZ        25.4290   10.6500   11.3270 C.ar  107  PHE107     -0.0000
     54  N         21.5430   15.3980   14.6500 N.am  108  GLU108     -0.1965
     55  CA        20.4580   15.9510   15.4330 C.3   108  GLU108      0.1733
     56  C         20.4280   15.0740   16.6860 C.2   108  GLU108      0.2616
     57  O         20.6840   13.8670   16.6110 O.2   108  GLU108     -0.2715
     58  CB        19.1450   15.7670   14.6790 C.3   108  GLU108      0.0429
     59  CG        18.9670   14.3140   14.2360 C.3   108  GLU108      0.1163
     60  CD        17.5730   13.9600   13.7910 C.2   108  GLU108      0.3649
     61  OE1       16.6270   14.1650   14.5790 O.co2 108  GLU108     -0.2457
     62  OE2       17.4150   13.4900   12.6430 O.co2 108  GLU108     -0.2457
     63  N         20.1180   15.6540   17.8380 N.am  109  TYR109     -0.1960
     64  CA        20.0770   14.8450   19.0460 C.3   109  TYR109      0.1771
     65  C         18.7830   14.0370   19.1410 C.2   109  TYR109      0.2619
     66  O         17.7360   14.4580   18.6440 O.2   109  TYR109     -0.2715
     67  CB        20.1990   15.7160   20.2970 C.3   109  TYR109      0.0574
     68  CG        20.1260   14.9110   21.5760 C.ar  109  TYR109     -0.0198
     69  CD1       21.2220   14.1650   22.0190 C.ar  109  TYR109     -0.0009
     70  CD2       18.9480   14.8590   22.3220 C.ar  109  TYR109     -0.0009
     71  CE1       21.1440   13.3880   23.1680 C.ar  109  TYR109      0.0417
     72  CE2       18.8620   14.0870   23.4730 C.ar  109  TYR109      0.0417
     73  CZ        19.9610   13.3550   23.8890 C.ar  109  TYR109      0.1957
     74  OH        19.8810   12.5930   25.0290 O.3   109  TYR109     -0.2866
     75  N         18.8710   12.8720   19.7770 N.am  110  VAL110     -0.1963
     76  CA        17.7200   12.0040   19.9910 C.3   110  VAL110      0.1727
     77  C         17.8950   11.3700   21.3630 C.2   110  VAL110      0.2616
     78  O         18.9460   10.8090   21.6730 O.2   110  VAL110     -0.2715
     79  CB        17.6130   10.9010   18.9160 C.3   110  VAL110      0.0290
     80  CG1       16.4110   10.0300   19.2020 C.3   110  VAL110      0.0023
     81  CG2       17.4780   11.5230   17.5330 C.3   110  VAL110      0.0023
     82  N         16.8570   11.4720   22.1810 N.am  111  ASN111     -0.1958
     83  CA        16.8780   10.9590   23.5420 C.3   111  ASN111      0.1819
     84  C         16.4160    9.4960   23.5730 C.2   111  ASN111      0.2621
     85  O         15.3570    9.1760   24.1050 O.2   111  ASN111     -0.2715
     86  CB        15.9620   11.8520   24.3930 C.3   111  ASN111      0.1195
     87  CG        15.9620   11.4690   25.8490 C.2   111  ASN111      0.2630
     88  OD1       16.8020   10.6830   26.2880 O.2   111  ASN111     -0.2716
     89  ND2       15.0270   12.0280   26.6180 N.am  111  ASN111     -0.0877
     90  N         17.2380    8.6170   23.0100 N.am  112  ASN112     -0.1972
     91  CA        16.9350    7.1990   22.9120 C.3   112  ASN112      0.1688
     92  C         16.9620    6.4140   24.2230 C.2   112  ASN112      0.2292
     93  O         17.5580    6.8490   25.2100 O.2   112  ASN112     -0.2864
     94  CB        17.8970    6.5530   21.9000 C.3   112  ASN112      0.1181
     95  CG        17.6500    5.0710   21.7240 C.2   112  ASN112      0.2629
     96  OD1       16.5750    4.6560   21.2860 O.2   112  ASN112     -0.2716
     97  ND2       18.6550    4.2650   22.0420 N.am  112  ASN112     -0.0877
     98  N         16.6180    4.6460   16.7810 N.3   157  MET157     -0.1245
     99  CA        16.5770    5.4800   17.9820 C.3   157  MET157      0.1570
    100  C         15.1460    5.9300   18.2200 C.2   157  MET157      0.2261
    101  O         14.4840    6.4140   17.3070 O.2   157  MET157     -0.2867
    102  CB        17.4680    6.7090   17.8100 C.3   157  MET157      0.0387
    103  CG        18.9260    6.3930   17.5050 C.3   157  MET157      0.0595
    104  SD        19.7640    5.5500   18.8520 S.3   157  MET157     -0.1393
    105  CE        19.5400    3.7980   18.4120 C.3   157  MET157      0.0692
    106  N         19.0910    5.1810   12.1680 N.3   168  ILE168     -0.1231
    107  CA        20.4980    5.5750   12.1440 C.3   168  ILE168      0.1692
    108  C         21.4610    4.5460   11.5400 C.2   168  ILE168      0.2592
    109  O         21.0480    3.5070   11.0270 O.2   168  ILE168     -0.2718
    110  CB        21.0000    5.9140   13.5790 C.3   168  ILE168      0.0266
    111  CG1       21.0100    4.6440   14.4410 C.3   168  ILE168      0.0019
    112  CG2       20.0960    6.9650   14.2270 C.3   168  ILE168      0.0020
    113  CD1       21.8860    4.7450   15.6740 C.3   168  ILE168      0.0001
    114  N         22.7490    4.8710   11.6440 N.am  169  ASP169     -0.1974
    115  CA        23.8750    4.0800   11.1420 C.3   169  ASP169      0.1709
    116  C         23.7440    3.5800    9.7120 C.2   169  ASP169      0.2293
    117  O         23.3770    2.4250    9.4590 O.2   169  ASP169     -0.2864
    118  CB        24.1930    2.8910   12.0500 C.3   169  ASP169      0.1436
    119  CG        25.6550    2.4620   11.9360 C.2   169  ASP169      0.3671
    120  OD1       26.2720    2.7210   10.8820 O.co2 169  ASP169     -0.2456
    121  OD2       26.1760    1.8650   12.9000 O.co2 169  ASP169     -0.2456
@<TRIPOS>BOND
     1    39    38    2
     2   117   116    2
     3   116   115    1
     4    38    37    1
     5    36    37    1
     6    41    40    1
     7   120   119   ar
     8    51    53   ar
     9    51    49   ar
    10   109   108    2
    11    37    40    1
    12   115   114    1
    13   115   118    1
    14    53    52   ar
    15   108   114   am
    16   108   107    1
    17    40    42    1
    18    35    34    1
    19    49    48   ar
    20   119   118    1
    21   119   121   ar
    22   107   106    1
    23   107   110    1
    24    52    50   ar
    25    62    60   ar
    26    34    33    1
    27    48    50   ar
    28    48    47    1
    29   110   112    1
    30   110   111    1
    31    33    32    1
    32    60    59    1
    33    60    61   ar
    34    44    47    1
    35    44    43    1
    36    44    45    1
    37    59    58    1
    38    30    29    2
    39   111   113    1
    40    32    31    1
    41    54    45   am
    42    54    55    1
    43    58    55    1
    44    31    28    1
    45    45    46    2
    46    55    56    1
    47    29    28    1
    48    28    27    1
    49    57    56    2
    50    56    63   am
    51    98    99    1
    52    22    21    2
    53   101   100    2
    54   103   102    1
    55   103   104    1
    56    81    79    1
    57   102    99    1
    58    63    64    1
    59    99   100    1
    60    21    20    1
    61    25    23    1
    62    18    16    1
    63    23    20    1
    64    23    24    1
    65   105   104    1
    66    66    65    2
    67    19    20    1
    68    79    80    1
    69    79    76    1
    70    64    65    1
    71    64    67    1
    72    65    75   am
    73    24    26    1
    74    17    16    1
    75    16    13    1
    76    75    76    1
    77    13    12    1
    78    13    14    1
    79    76    77    1
    80    67    68    1
    81    14    15    2
    82    96    95    2
    83    77    78    2
    84    77    82   am
    85    68    69   ar
    86    68    70   ar
    87    95    94    1
    88    95    97   am
    89    10    11    2
    90    10     9    1
    91    94    91    1
    92    69    71   ar
    93    82    83    1
    94     9     8    1
    95    70    72   ar
    96     7     5    1
    97    91    90    1
    98    91    92    1
    99    90    84   am
   100     8     3   am
   101    71    73   ar
   102    72    73   ar
   103    83    84    1
   104    83    86    1
   105    84    85    2
   106    73    74    1
   107     3     4    2
   108     3     2    1
   109     5     2    1
   110     5     6    1
   111    92    93    2
   112    86    87    1
   113     2     1    1
   114    87    88    2
   115    87    89   am
