@<TRIPOS>MOLECULE
tmp/1m2wB01.pdb
 150 143 0 0 0
SMALL
GASTEIGER

@<TRIPOS>ATOM
      1  N         49.0130   78.0580    3.5480 N.3    36  PHE36      -0.1241
      2  CA        47.8350   77.4780    2.9170 C.3    36  PHE36       0.1605
      3  C         47.7300   77.7650    1.4230 C.2    36  PHE36       0.2264
      4  O         47.4160   76.8730    0.6290 O.2    36  PHE36      -0.2867
      5  CB        46.5570   77.9410    3.6240 C.3    36  PHE36       0.0534
      6  CG        45.3170   77.2630    3.0980 C.ar   36  PHE36      -0.0203
      7  CD1       45.1690   75.8770    3.2260 C.ar   36  PHE36      -0.0042
      8  CD2       44.3510   77.9800    2.4200 C.ar   36  PHE36      -0.0042
      9  CE1       44.0610   75.2270    2.6740 C.ar   36  PHE36      -0.0003
     10  CE2       43.2490   77.3500    1.8690 C.ar   36  PHE36      -0.0003
     11  CZ        43.1120   75.9550    2.0030 C.ar   36  PHE36      -0.0000
     12  N         40.7030   84.7980    8.6530 N.3   130  GLU130     -0.1245
     13  CA        39.2800   84.8640    8.9690 C.3   130  GLU130      0.1567
     14  C         38.7680   86.2530    9.3200 C.2   130  GLU130      0.2260
     15  O         37.6300   86.6100    8.9920 O.2   130  GLU130     -0.2867
     16  CB        38.9820   83.8720   10.1110 C.3   130  GLU130      0.0388
     17  CG        39.2080   82.4230    9.6750 C.3   130  GLU130      0.1160
     18  CD        40.6550   81.9100    9.8130 C.2   130  GLU130      0.3649
     19  OE1       41.6060   82.6830   10.1150 O.co2 130  GLU130     -0.2457
     20  OE2       40.8450   80.6740    9.6110 O.co2 130  GLU130     -0.2457
     21  N         38.5950   80.6350    5.2670 N.3   186  ASN186     -0.1240
     22  CA        37.4990   79.8540    5.8720 C.3   186  ASN186      0.1653
     23  C         36.3750   80.6410    6.4890 C.2   186  ASN186      0.2266
     24  O         36.3710   80.8210    7.7010 O.2   186  ASN186     -0.2867
     25  CB        38.0160   78.9840    6.9890 C.3   186  ASN186      0.1155
     26  CG        39.0340   78.0730    6.5400 C.2   186  ASN186      0.2627
     27  OD1       38.7720   77.2440    5.6820 O.2   186  ASN186     -0.2716
     28  ND2       40.2340   78.1840    7.1190 N.am  186  ASN186     -0.0877
     29  N         37.3270   75.3880    1.2870 N.3   223  VAL223     -0.1231
     30  CA        38.7280   75.0150    1.0350 C.3   223  VAL223      0.1692
     31  C         39.2700   74.1470    2.1880 C.2   223  VAL223      0.2592
     32  O         38.9260   74.3830    3.3500 O.2   223  VAL223     -0.2718
     33  CB        39.6250   76.2940    0.8710 C.3   223  VAL223      0.0266
     34  CG1       39.1310   77.0930   -0.3160 C.3   223  VAL223      0.0020
     35  CG2       39.5680   77.1670    2.1160 C.3   223  VAL223      0.0020
     36  N         40.1180   73.1560    1.8850 N.am  224  ASP224     -0.1960
     37  CA        40.5710   72.2950    2.9710 C.3   224  ASP224      0.1840
     38  C         41.9160   71.6190    2.7660 C.2   224  ASP224      0.2622
     39  O         42.1240   70.9180    1.7850 O.2   224  ASP224     -0.2715
     40  CB        39.4600   71.2290    3.2200 C.3   224  ASP224      0.1450
     41  CG        39.6830   70.3850    4.4840 C.2   224  ASP224      0.3671
     42  OD1       40.5500   70.7190    5.3320 O.co2 224  ASP224     -0.2456
     43  OD2       38.9610   69.3660    4.6260 O.co2 224  ASP224     -0.2456
     44  N         42.8360   71.8930    3.6790 N.am  225  ARG225     -0.1963
     45  CA        44.1370   71.2210    3.7400 C.3   225  ARG225      0.1729
     46  C         44.8750   71.7160    4.9800 C.2   225  ARG225      0.2616
     47  O         45.1310   72.9190    5.1060 O.2   225  ARG225     -0.2715
     48  CB        45.0080   71.4200    2.4990 C.3   225  ARG225      0.0348
     49  CG        46.2840   70.5680    2.5850 C.3   225  ARG225      0.0492
     50  CD        47.0740   70.5450    1.2180 C.3   225  ARG225      0.2205
     51  NE        47.5160   69.1870    0.8930 N.pl3 225  ARG225     -0.0865
     52  CZ        48.1260   68.8420   -0.2420 C.cat 225  ARG225      0.5346
     53  NH1       48.3880   69.7460   -1.1660 N.pl3 225  ARG225      0.1354
     54  NH2       48.4400   67.5720   -0.4730 N.pl3 225  ARG225      0.1354
     55  N         45.1540   70.7990    5.9100 N.am  226  ILE226     -0.1963
     56  CA        45.8620   71.1730    7.1350 C.3   226  ILE226      0.1727
     57  C         47.3150   71.5020    6.7830 C.2   226  ILE226      0.2616
     58  O         48.0440   70.6660    6.2200 O.2   226  ILE226     -0.2715
     59  CB        45.8030   70.0480    8.1850 C.3   226  ILE226      0.0290
     60  CG1       44.3510   69.9070    8.7030 C.3   226  ILE226      0.0022
     61  CG2       46.7370   70.3850    9.3760 C.3   226  ILE226      0.0023
     62  CD1       44.0890   68.5670    9.3510 C.3   226  ILE226      0.0001
     63  N         47.7150   72.7370    7.1130 N.am  227  THR227     -0.1951
     64  CA        49.0560   73.2540    6.8210 C.3   227  THR227      0.1897
     65  C         49.6620   73.9210    8.0640 C.2   227  THR227      0.2313
     66  O         49.2990   75.0350    8.4190 O.2   227  THR227     -0.2863
     67  CB        48.9440   74.2750    5.6430 C.3   227  THR227      0.1794
     68  OG1       48.2550   73.6400    4.5560 O.3   227  THR227     -0.2208
     69  CG2       50.3250   74.7130    5.1530 C.3   227  THR227      0.0378
     70  N         32.2620   71.4160    6.5930 N.3   287  LYS287     -0.1245
     71  CA        33.6730   71.5320    6.9090 C.3   287  LYS287      0.1561
     72  C         33.9870   72.5390    7.9750 C.2   287  LYS287      0.2260
     73  O         34.7130   72.2280    8.9300 O.2   287  LYS287     -0.2867
     74  CB        34.5060   71.7980    5.6430 C.3   287  LYS287      0.0271
     75  CG        36.0330   71.6890    5.8970 C.3   287  LYS287      0.0035
     76  CD        36.5690   73.1230    6.0370 C.3   287  LYS287      0.0206
     77  CE        38.0730   73.1450    6.2710 C.3   287  LYS287      0.1093
     78  NZ        38.5290   74.5560    6.2360 N.3   287  LYS287     -0.1314
     79  N         35.1580   70.4920   11.1380 N.3   291  LEU291     -0.1231
     80  CA        36.6300   70.5120   11.2240 C.3   291  LEU291      0.1693
     81  C         37.1120   71.7710   11.9570 C.2   291  LEU291      0.2592
     82  O         37.7130   71.6780   13.0440 O.2   291  LEU291     -0.2718
     83  CB        37.2550   70.4280    9.7960 C.3   291  LEU291      0.0284
     84  CG        38.7880   70.1530    9.7450 C.3   291  LEU291      0.0019
     85  CD1       39.2090   69.8870    8.2820 C.3   291  LEU291      0.0001
     86  CD2       39.6000   71.3500   10.3460 C.3   291  LEU291      0.0001
     87  N         36.8400   72.9540   11.4100 N.am  292  ASN292     -0.1974
     88  CA        37.3170   74.1510   12.1130 C.3   292  ASN292      0.1688
     89  C         36.7080   74.2680   13.5230 C.2   292  ASN292      0.2292
     90  O         37.3740   74.7110   14.4650 O.2   292  ASN292     -0.2864
     91  CB        37.0240   75.4030   11.2900 C.3   292  ASN292      0.1181
     92  CG        37.7620   75.3880    9.9490 C.2   292  ASN292      0.2629
     93  OD1       37.1470   75.2900    8.8870 O.2   292  ASN292     -0.2716
     94  ND2       39.0960   75.4460   10.0050 N.am  292  ASN292     -0.0877
     95  N         38.5920   71.9860   15.7840 N.3   295  HIS295     -0.1226
     96  CA        39.9280   72.5340   16.0650 C.3   295  HIS295      0.1752
     97  C         39.8630   73.4890   17.2600 C.2   295  HIS295      0.2595
     98  O         40.6870   73.4180   18.1970 O.2   295  HIS295     -0.2718
     99  CB        40.4590   73.3090   14.8400 C.3   295  HIS295      0.0759
    100  CG        41.5010   72.5610   14.0710 C.ar  295  HIS295      0.0818
    101  ND1       41.9000   72.9370   12.8050 N.ar  295  HIS295     -0.2268
    102  CD2       42.2190   71.4550   14.3820 C.ar  295  HIS295      0.1154
    103  CE1       42.8210   72.0960   12.3690 C.ar  295  HIS295      0.1986
    104  NE2       43.0320   71.1850   13.3070 N.ar  295  HIS295     -0.2212
    105  N         38.8940   74.4080   17.2500 N.am  296  LEU296     -0.1980
    106  CA        38.8110   75.3290   18.3840 C.3   296  LEU296      0.1596
    107  C         38.4410   74.6150   19.6890 C.2   296  LEU296      0.2287
    108  O         38.8960   75.0220   20.7770 O.2   296  LEU296     -0.2864
    109  CB        37.8050   76.4530   18.1300 C.3   296  LEU296      0.0297
    110  CG        38.1380   77.5030   17.0650 C.3   296  LEU296      0.0022
    111  CD1       37.2640   78.7770   17.4370 C.3   296  LEU296      0.0001
    112  CD2       39.6580   77.8930   17.0610 C.3   296  LEU296      0.0001
    113  N         49.2800   77.5720   16.4720 N.3   362  ARG362     -0.1231
    114  CA        48.6820   78.0020   15.1930 C.3   362  ARG362      0.1694
    115  C         47.1270   77.9930   15.2340 C.2   362  ARG362      0.2591
    116  O         46.4190   78.9580   14.8710 O.2   362  ARG362     -0.2718
    117  CB        49.1360   77.0760   14.0650 C.3   362  ARG362      0.0321
    118  CG        48.6700   77.5520   12.6620 C.3   362  ARG362      0.0489
    119  CD        48.9770   76.4740   11.5620 C.3   362  ARG362      0.2205
    120  NE        48.0780   75.3090   11.6590 N.pl3 362  ARG362     -0.0865
    121  CZ        46.8260   75.2840   11.1990 C.cat 362  ARG362      0.5346
    122  NH1       46.3020   76.3450   10.6120 N.pl3 362  ARG362      0.1354
    123  NH2       46.1170   74.1680   11.2920 N.pl3 362  ARG362      0.1354
    124  N         46.6130   76.8690   15.6760 N.am  363  VAL363     -0.1980
    125  CA        45.1650   76.6700   15.7590 C.3   363  VAL363      0.1595
    126  C         44.5550   77.6450   16.7750 C.2   363  VAL363      0.2287
    127  O         43.4770   78.1850   16.5380 O.2   363  VAL363     -0.2864
    128  CB        44.8520   75.2080   16.1590 C.3   363  VAL363      0.0276
    129  CG1       43.2790   74.9860   16.1680 C.3   363  VAL363      0.0022
    130  CG2       45.4710   74.2490   15.1150 C.3   363  VAL363      0.0022
    131  N         38.3160   83.9320   14.8540 N.3   370  LYS370     -0.1245
    132  CA        37.8400   82.5800   14.5250 C.3   370  LYS370      0.1561
    133  C         36.5240   82.2180   15.1930 C.2   370  LYS370      0.2260
    134  O         35.6850   81.5820   14.5770 O.2   370  LYS370     -0.2867
    135  CB        38.9010   81.5340   14.8830 C.3   370  LYS370      0.0271
    136  CG        40.1780   81.6440   13.9800 C.3   370  LYS370      0.0035
    137  CD        41.2900   80.7150   14.5080 C.3   370  LYS370      0.0206
    138  CE        42.4330   80.6420   13.4730 C.3   370  LYS370      0.1093
    139  NZ        43.6130   79.9070   14.0550 N.3   370  LYS370     -0.1314
    140  N         33.7530   79.9110   13.2660 N.3   374  PHE374     -0.1241
    141  CA        33.8440   78.4610   13.5190 C.3   374  PHE374      0.1605
    142  C         32.9230   77.8820   14.5590 C.2   374  PHE374      0.2264
    143  O         32.5670   76.7070   14.4680 O.2   374  PHE374     -0.2867
    144  CB        35.2660   78.0600   13.9970 C.3   374  PHE374      0.0534
    145  CG        36.3810   78.3700   13.0120 C.ar  374  PHE374     -0.0203
    146  CD1       37.7180   78.2300   13.4160 C.ar  374  PHE374     -0.0042
    147  CD2       36.1080   78.8130   11.7210 C.ar  374  PHE374     -0.0042
    148  CE1       38.7600   78.5320   12.5350 C.ar  374  PHE374     -0.0003
    149  CE2       37.1570   79.1280   10.8170 C.ar  374  PHE374     -0.0003
    150  CZ        38.4840   78.9870   11.2290 C.ar  374  PHE374     -0.0000
@<TRIPOS>BOND
     1    53    52    1
     2    54    52    1
     3    34    33    1
     4    52    51    2
     5     4     3    2
     6    33    30    1
     7    33    35    1
     8    51    50    1
     9    30    29    1
    10    30    31    1
    11    50    49    1
    12     3     2    1
    13    39    38    2
    14    10    11   ar
    15    10     8   ar
    16    36    31   am
    17    36    37    1
    18    11     9   ar
    19    31    32    2
    20     8     6   ar
    21    48    49    1
    22    48    45    1
    23     9     7   ar
    24    38    37    1
    25    38    44   am
    26     2     1    1
    27     2     5    1
    28    37    40    1
    29     6     7   ar
    30     6     5    1
    31    40    41    1
    32    44    45    1
    33    45    46    1
    34    41    43   ar
    35    41    42   ar
    36    68    67    1
    37    46    47    2
    38    46    55   am
    39    69    67    1
    40    21    22    1
    41    67    64    1
    42    74    75    1
    43    74    71    1
    44    27    26    2
    45    22    23    1
    46    22    25    1
    47    75    76    1
    48    55    56    1
    49    76    77    1
    50    58    57    2
    51    78    77    1
    52    23    24    2
    53    26    25    1
    54    26    28   am
    55    70    71    1
    56    57    63   am
    57    57    56    1
    58    64    63    1
    59    64    65    1
    60    71    72    1
    61    56    59    1
    62    72    73    2
    63    65    66    2
    64    59    60    1
    65    59    61    1
    66    85    84    1
    67    12    13    1
    68    60    62    1
    69    93    92    2
    70    13    14    1
    71    13    16    1
    72    15    14    2
    73    20    18   ar
    74    17    18    1
    75    17    16    1
    76    84    83    1
    77    84    86    1
    78    83    80    1
    79    18    19   ar
    80    92    94   am
    81    92    91    1
    82   122   121    1
    83   149   150   ar
    84   149   147   ar
    85    79    80    1
    86   121   123    1
    87   121   120    2
    88    80    81    1
    89   150   148   ar
    90    91    88    1
    91    87    81   am
    92    87    88    1
    93   119   120    1
    94   119   118    1
    95   147   145   ar
    96    81    82    2
    97    88    89    1
    98   103   101   ar
    99   103   104   ar
   100   148   146   ar
   101   118   117    1
   102   101   100   ar
   103   145   146   ar
   104   145   144    1
   105   140   141    1
   106   104   102   ar
   107   138   139    1
   108   138   137    1
   109   141   144    1
   110   141   142    1
   111    89    90    2
   112   136   137    1
   113   136   135    1
   114   117   114    1
   115   100   102   ar
   116   100    99    1
   117   143   142    2
   118   132   131    1
   119   132   135    1
   120   132   133    1
   121   134   133    2
   122    99    96    1
   123   116   115    2
   124   130   128    1
   125   114   115    1
   126   114   113    1
   127   115   124   am
   128   124   125    1
   129   125   128    1
   130   125   126    1
   131    95    96    1
   132    96    97    1
   133   128   129    1
   134   127   126    2
   135   112   110    1
   136   110   111    1
   137   110   109    1
   138   105    97   am
   139   105   106    1
   140    97    98    2
   141   109   106    1
   142   106   107    1
   143   107   108    2
