@<TRIPOS>MOLECULE
tmp/1m2xB00.pdb
 117 115 0 0 0
SMALL
GASTEIGER

@<TRIPOS>ATOM
      1  N         25.9630   38.4260   25.0100 N.3    20  PHE20      -0.1241
      2  CA        26.5960   38.9870   23.8240 C.3    20  PHE20       0.1605
      3  C         26.5300   40.5040   23.8330 C.2    20  PHE20       0.2264
      4  O         25.4540   41.0900   23.7130 O.2    20  PHE20      -0.2867
      5  CB        25.9200   38.4810   22.5430 C.3    20  PHE20       0.0534
      6  CG        26.2490   37.0590   22.1980 C.ar   20  PHE20      -0.0203
      7  CD1       25.6660   36.0070   22.8930 C.ar   20  PHE20      -0.0042
      8  CD2       27.1520   36.7730   21.1780 C.ar   20  PHE20      -0.0042
      9  CE1       25.9770   34.6870   22.5760 C.ar   20  PHE20      -0.0003
     10  CE2       27.4700   35.4560   20.8530 C.ar   20  PHE20      -0.0003
     11  CZ        26.8810   34.4110   21.5540 C.ar   20  PHE20      -0.0000
     12  N         24.2320   26.3230   25.8690 N.3    45  TRP45      -0.1241
     13  CA        24.9290   27.3240   25.0770 C.3    45  TRP45       0.1605
     14  C         26.2470   27.6900   25.7520 C.2    45  TRP45       0.2264
     15  O         26.3110   28.6260   26.5510 O.2    45  TRP45      -0.2867
     16  CB        24.0400   28.5520   24.9320 C.3    45  TRP45       0.0550
     17  CG        24.3550   29.4080   23.7540 C.ar   45  TRP45       0.0003
     18  CD1       25.3190   29.1980   22.8090 C.ar   45  TRP45       0.0946
     19  CD2       23.6870   30.6150   23.3870 C.ar   45  TRP45       0.0152
     20  NE1       25.2900   30.2070   21.8730 N.ar   45  TRP45      -0.2442
     21  CE2       24.2960   31.0890   22.2060 C.ar   45  TRP45       0.0810
     22  CE3       22.6280   31.3440   23.9450 C.ar   45  TRP45       0.0012
     23  CZ2       23.8810   32.2630   21.5700 C.ar   45  TRP45       0.0191
     24  CZ3       22.2160   32.5110   23.3140 C.ar   45  TRP45       0.0001
     25  CH2       22.8430   32.9580   22.1380 C.ar   45  TRP45       0.0015
     26  N         20.2850   22.2300   14.2160 N.3    72  HIS72      -0.1241
     27  CA        21.0100   23.0000   13.2030 C.3    72  HIS72       0.1621
     28  C         22.4650   23.1020   13.6340 C.2    72  HIS72       0.2264
     29  O         22.8130   22.6650   14.7300 O.2    72  HIS72      -0.2867
     30  CB        20.3420   24.3390   12.7760 C.3    72  HIS72       0.0745
     31  CG        20.4780   25.4810   13.7330 C.ar   72  HIS72       0.0817
     32  ND1       19.5590   25.7280   14.7290 N.ar   72  HIS72      -0.2268
     33  CD2       21.3370   26.5280   13.7480 C.ar   72  HIS72       0.1154
     34  CE1       19.8410   26.8780   15.3130 C.ar   72  HIS72       0.1986
     35  NE2       20.9160   27.3850   14.7340 N.ar   72  HIS72      -0.2212
     36  N         24.6020   25.5540   14.5360 N.3    74  HIS74      -0.1226
     37  CA        25.1590   26.5040   15.4880 C.3    74  HIS74       0.1752
     38  C         25.4740   25.9730   16.8800 C.2    74  HIS74       0.2596
     39  O         24.9620   24.9320   17.2980 O.2    74  HIS74      -0.2718
     40  CB        24.2660   27.7390   15.5330 C.3    74  HIS74       0.0759
     41  CG        24.2140   28.4720   14.2250 C.ar   74  HIS74       0.0818
     42  ND1       23.2050   29.3490   13.8930 N.ar   74  HIS74      -0.2268
     43  CD2       25.0530   28.4500   13.1610 C.ar   74  HIS74       0.1154
     44  CE1       23.4200   29.8340   12.6830 C.ar   74  HIS74       0.1986
     45  NE2       24.5360   29.3050   12.2160 N.ar   74  HIS74      -0.2212
     46  N         26.3540   26.6940   17.5730 N.am   75  ASP75      -0.1960
     47  CA        26.8470   26.3270   18.9040 C.3    75  ASP75       0.1840
     48  C         25.7970   25.9800   19.9520 C.2    75  ASP75       0.2622
     49  O         26.0560   25.1670   20.8410 O.2    75  ASP75      -0.2715
     50  CB        27.7380   27.4490   19.4540 C.3    75  ASP75       0.1450
     51  CG        29.0730   27.5560   18.7290 C.2    75  ASP75       0.3671
     52  OD1       29.7470   28.5970   18.8930 O.co2  75  ASP75      -0.2456
     53  OD2       29.4550   26.6090   18.0060 O.co2  75  ASP75      -0.2456
     54  N         24.6250   26.6000   19.8610 N.am   76  ASP76      -0.1971
     55  CA        23.5710   26.3310   20.8270 C.3    76  ASP76       0.1709
     56  C         22.7430   25.0930   20.4960 C.2    76  ASP76       0.2293
     57  O         21.8220   24.7430   21.2320 O.2    76  ASP76      -0.2864
     58  CB        22.6660   27.5680   20.9750 C.3    76  ASP76       0.1436
     59  CG        22.0070   27.9890   19.6710 C.2    76  ASP76       0.3671
     60  OD1       22.5300   27.6750   18.5760 O.co2  76  ASP76      -0.2456
     61  OD2       20.9560   28.6610   19.7470 O.co2  76  ASP76      -0.2456
     62  N         33.8450   21.5620   12.5690 N.3   106  LYS106     -0.1245
     63  CA        33.2730   21.3710   13.8970 C.3   106  LYS106      0.1561
     64  C         32.9510   19.8860   14.0680 C.2   106  LYS106      0.2260
     65  O         32.7360   19.1760   13.0860 O.2   106  LYS106     -0.2867
     66  CB        31.9850   22.1850   14.0470 C.3   106  LYS106      0.0271
     67  CG        32.1560   23.7010   14.0030 C.3   106  LYS106      0.0035
     68  CD        30.7990   24.3900   14.1600 C.3   106  LYS106      0.0206
     69  CE        30.9170   25.9040   14.2410 C.3   106  LYS106      0.1093
     70  NZ        29.5830   26.5430   14.4560 N.3   106  LYS106     -0.1314
     71  N         15.8690   30.5030    9.6500 N.3   135  HIS135     -0.1241
     72  CA        16.9620   31.0260   10.4640 C.3   135  HIS135      0.1621
     73  C         18.2720   30.6050    9.7890 C.2   135  HIS135      0.2264
     74  O         19.2470   31.3600    9.7520 O.2   135  HIS135     -0.2867
     75  CB        16.8620   30.4470   11.8800 C.3   135  HIS135      0.0745
     76  CG        18.1000   30.6290   12.7020 C.ar  135  HIS135      0.0817
     77  ND1       18.5180   31.8590   13.1640 N.ar  135  HIS135     -0.2268
     78  CD2       19.0190   29.7330   13.1330 C.ar  135  HIS135      0.1154
     79  CE1       19.6420   31.7120   13.8420 C.ar  135  HIS135      0.1986
     80  NE2       19.9670   30.4310   13.8370 N.ar  135  HIS135     -0.2212
     81  N         15.6040   27.8610   16.7130 N.3   154  CYS154     -0.1235
     82  CA        15.8100   29.2370   16.3260 C.3   154  CYS154      0.1677
     83  C         15.0300   29.7780   15.1350 C.2   154  CYS154      0.2270
     84  O         15.1270   30.9650   14.8210 O.2   154  CYS154     -0.2867
     85  CB        17.3110   29.4500   16.1870 C.3   154  CYS154      0.0956
     86  SG        18.1370   28.8280   17.6930 S.3   154  CYS154     -0.0801
     87  N         20.6430   36.5570   14.9460 N.3   166  TYR166     -0.1241
     88  CA        21.7260   36.3170   13.9970 C.3   166  TYR166      0.1605
     89  C         21.1690   35.8870   12.6400 C.2   166  TYR166      0.2264
     90  O         20.6170   34.7930   12.5070 O.2   166  TYR166     -0.2867
     91  CB        22.6760   35.2380   14.5280 C.3   166  TYR166      0.0534
     92  CG        23.7210   34.8200   13.5190 C.ar  166  TYR166     -0.0201
     93  CD1       24.6260   35.7430   12.9990 C.ar  166  TYR166     -0.0009
     94  CD2       23.7900   33.5040   13.0600 C.ar  166  TYR166     -0.0009
     95  CE1       25.5720   35.3720   12.0450 C.ar  166  TYR166      0.0417
     96  CE2       24.7350   33.1230   12.1060 C.ar  166  TYR166      0.0417
     97  CZ        25.6220   34.0610   11.6030 C.ar  166  TYR166      0.1957
     98  OH        26.5560   33.6990   10.6580 O.3   166  TYR166     -0.2866
     99  N         23.3600   33.8220    8.2240 N.3   169  GLU169     -0.1245
    100  CA        23.1890   32.6080    7.4320 C.3   169  GLU169      0.1567
    101  C         21.7110   32.3160    7.1890 C.2   169  GLU169      0.2260
    102  O         21.3350   31.1980    6.8290 O.2   169  GLU169     -0.2867
    103  CB        23.8370   31.4300    8.1630 C.3   169  GLU169      0.0388
    104  CG        25.3460   31.5480    8.3080 C.3   169  GLU169      0.1160
    105  CD        25.8970   30.7030    9.4400 C.2   169  GLU169      0.3649
    106  OE1       25.4660   29.5410    9.5810 O.co2 169  GLU169     -0.2457
    107  OE2       26.7690   31.1960   10.1870 O.co2 169  GLU169     -0.2457
    108  N         15.1930   30.9560   21.5960 N.3   196  HIS196     -0.1241
    109  CA        15.8400   31.9100   22.4940 C.3   196  HIS196      0.1621
    110  C         14.8680   32.7040   23.3490 C.2   196  HIS196      0.2264
    111  O         13.6950   32.8410   23.0120 O.2   196  HIS196     -0.2867
    112  CB        16.7000   32.8880   21.6880 C.3   196  HIS196      0.0745
    113  CG        17.9270   32.2650   21.1040 C.ar  196  HIS196      0.0817
    114  ND1       19.0240   31.9320   21.8660 N.ar  196  HIS196     -0.2268
    115  CD2       18.2120   31.8750   19.8400 C.ar  196  HIS196      0.1154
    116  CE1       19.9350   31.3610   21.0990 C.ar  196  HIS196      0.1986
    117  NE2       19.4670   31.3150   19.8650 N.ar  196  HIS196     -0.2212
@<TRIPOS>BOND
     1   102   101    2
     2   101   100    1
     3   100   103    1
     4   100    99    1
     5   103   104    1
     6   104   105    1
     7   105   106   ar
     8   105   107   ar
     9    71    72    1
    10    74    73    2
    11    73    72    1
    12    72    75    1
    13    98    97    1
    14    97    95   ar
    15    97    96   ar
    16    75    76    1
    17    95    93   ar
    18    96    94   ar
    19    45    44   ar
    20    45    43   ar
    21    90    89    2
    22    62    63    1
    23    89    88    1
    24    44    42   ar
    25    76    78   ar
    26    76    77   ar
    27    30    27    1
    28    30    31    1
    29    93    92   ar
    30    94    92   ar
    31    65    64    2
    32    78    80   ar
    33    43    41   ar
    34    77    79   ar
    35    27    28    1
    36    27    26    1
    37    92    91    1
    38    28    29    2
    39    31    33   ar
    40    31    32   ar
    41    33    35   ar
    42    80    79   ar
    43    42    41   ar
    44    63    66    1
    45    63    64    1
    46    88    91    1
    47    88    87    1
    48    67    66    1
    49    67    68    1
    50    68    69    1
    51    41    40    1
    52    69    70    1
    53    36    37    1
    54    32    34   ar
    55    35    34   ar
    56    84    83    2
    57    83    82    1
    58    37    40    1
    59    37    38    1
    60    85    82    1
    61    85    86    1
    62    82    81    1
    63    38    39    2
    64    38    46   am
    65    46    47    1
    66    53    51   ar
    67    60    59   ar
    68    51    52   ar
    69    51    50    1
    70    47    50    1
    71    47    48    1
    72    59    61   ar
    73    59    58    1
    74   115   117   ar
    75   115   113   ar
    76    54    48   am
    77    54    55    1
    78   117   116   ar
    79    48    49    2
    80    56    55    1
    81    56    57    2
    82    55    58    1
    83    10     8   ar
    84    10    11   ar
    85   116   114   ar
    86   113   112    1
    87   113   114   ar
    88     8     6   ar
    89    11     9   ar
    90    23    25   ar
    91    23    21   ar
    92   108   109    1
    93   112   109    1
    94    20    21   ar
    95    20    18   ar
    96    25    24   ar
    97     6     5    1
    98     6     7   ar
    99    21    19   ar
   100   109   110    1
   101     5     2    1
   102     9     7   ar
   103    18    17   ar
   104   111   110    2
   105    24    22   ar
   106    19    17   ar
   107    19    22   ar
   108     4     3    2
   109    17    16    1
   110     2     3    1
   111     2     1    1
   112    16    13    1
   113    13    14    1
   114    13    12    1
   115    14    15    2
