@<TRIPOS>MOLECULE
tmp/1m2zA00.pdb
 87 81 0 0 0
SMALL
GASTEIGER

@<TRIPOS>ATOM
      1  N         49.1680   -1.3620   18.3420 N.3   153  VAL153     -0.1245
      2  CA        49.4710   -2.7880   18.2740 C.3   153  VAL153      0.1561
      3  C         49.1750   -3.4600   19.6160 C.2   153  VAL153      0.2260
      4  O         48.9400   -2.7800   20.6150 O.2   153  VAL153     -0.2867
      5  CB        50.9610   -3.0290   17.9310 C.3   153  VAL153      0.0252
      6  CG1       51.2710   -2.4840   16.5500 C.3   153  VAL153      0.0019
      7  CG2       51.8520   -2.3710   18.9760 C.3   153  VAL153      0.0019
      8  N         56.2110   -8.2880   13.9780 N.3   161  GLN161     -0.1245
      9  CA        56.6820   -7.0300   14.5570 C.3   161  GLN161      0.1566
     10  C         57.8770   -6.4070   13.8520 C.2   161  GLN161      0.2260
     11  O         57.8410   -5.2310   13.4870 O.2   161  GLN161     -0.2867
     12  CB        57.0230   -7.2290   16.0430 C.3   161  GLN161      0.0367
     13  CG        56.0090   -6.5890   17.0030 C.3   161  GLN161      0.0905
     14  CD        55.9710   -5.0670   16.9250 C.2   161  GLN161      0.2608
     15  OE1       55.0460   -4.4350   17.4240 O.2   161  GLN161     -0.2717
     16  NE2       56.9900   -4.4760   16.3060 N.am  161  GLN161     -0.0878
     17  N         56.7310   -4.8790   10.9140 N.3   164  PHE164     -0.1227
     18  CA        55.8240   -3.7850   11.2590 C.3   164  PHE164      0.1736
     19  C         56.5770   -2.4820   11.5060 C.2   164  PHE164      0.2595
     20  O         56.3220   -1.4770   10.8440 O.2   164  PHE164     -0.2718
     21  CB        55.0160   -4.1460   12.5100 C.3   164  PHE164      0.0547
     22  CG        54.0640   -3.0690   12.9400 C.ar  164  PHE164     -0.0202
     23  CD1       52.8550   -2.8800   12.2820 C.ar  164  PHE164     -0.0042
     24  CD2       54.3910   -2.2140   13.9920 C.ar  164  PHE164     -0.0042
     25  CE1       51.9810   -1.8650   12.6610 C.ar  164  PHE164     -0.0003
     26  CE2       53.5280   -1.1950   14.3790 C.ar  164  PHE164     -0.0003
     27  CZ        52.3200   -1.0200   13.7140 C.ar  164  PHE164     -0.0000
     28  N         57.4910   -2.5030   12.4710 N.am  165  ASP165     -0.1974
     29  CA        58.2900   -1.3260   12.8130 C.3   165  ASP165      0.1709
     30  C         59.0150   -0.7790   11.5890 C.2   165  ASP165      0.2293
     31  O         59.2040    0.4300   11.4540 O.2   165  ASP165     -0.2864
     32  CB        59.3150   -1.6870   13.8920 C.3   165  ASP165      0.1436
     33  CG        58.6710   -2.0600   15.2120 C.2   165  ASP165      0.3671
     34  OD1       59.3770   -2.6000   16.0860 O.co2 165  ASP165     -0.2456
     35  OD2       57.4580   -1.8050   15.3740 O.co2 165  ASP165     -0.2456
     36  N         56.3780    1.0220    9.5130 N.3   168  ARG168     -0.1231
     37  CA        56.0120    2.2430   10.2200 C.3   168  ARG168      0.1694
     38  C         57.0870    3.3150   10.0840 C.2   168  ARG168      0.2591
     39  O         56.7820    4.4730    9.8090 O.2   168  ARG168     -0.2718
     40  CB        55.7590    1.9310   11.6910 C.3   168  ARG168      0.0321
     41  CG        55.1450    3.0800   12.4710 C.3   168  ARG168      0.0489
     42  CD        54.5300    2.5800   13.7780 C.3   168  ARG168      0.2205
     43  NE        53.7930    3.6330   14.4780 N.pl3 168  ARG168     -0.0865
     44  CZ        54.3550    4.6360   15.1450 C.cat 168  ARG168      0.5346
     45  NH1       55.6750    4.7440   15.2190 N.pl3 168  ARG168      0.1354
     46  NH2       53.5890    5.5410   15.7380 N.pl3 168  ARG168      0.1354
     47  N         58.3450    2.9290   10.2860 N.am  169  MET169     -0.1979
     48  CA        59.4490    3.8700   10.1670 C.3   169  MET169      0.1605
     49  C         59.5210    4.3820    8.7260 C.2   169  MET169      0.2287
     50  O         59.8550    5.5400    8.4860 O.2   169  MET169     -0.2864
     51  CB        60.7760    3.1940   10.5470 C.3   169  MET169      0.0413
     52  CG        61.9900    4.1330   10.5340 C.3   169  MET169      0.0598
     53  SD        61.7530    5.5930   11.5700 S.3   169  MET169     -0.1393
     54  CE        61.9540    4.8900   13.2030 C.3   169  MET169      0.0692
     55  N         56.9920    7.0340    8.4630 N.3   172  ILE172     -0.1245
     56  CA        57.3000    8.1800    9.3070 C.3   172  ILE172      0.1561
     57  C         58.2120    9.0550    8.4460 C.2   172  ILE172      0.2260
     58  O         58.0690   10.2760    8.4110 O.2   172  ILE172     -0.2867
     59  CB        58.0440    7.7690   10.5950 C.3   172  ILE172      0.0252
     60  CG1       57.0900    7.0120   11.5320 C.3   172  ILE172      0.0019
     61  CG2       58.6090    9.0010   11.2900 C.3   172  ILE172      0.0019
     62  CD1       57.7330    6.5380   12.8200 C.3   172  ILE172      0.0001
     63  N         48.2180   -1.5360   23.0180 N.3   248  LYS248     -0.1245
     64  CA        49.3020   -0.6100   23.2980 C.3   248  LYS248      0.1561
     65  C         49.2570    0.5170   22.2710 C.2   248  LYS248      0.2260
     66  O         49.4800    0.2910   21.0830 O.2   248  LYS248     -0.2867
     67  CB        50.6130   -1.3330   23.1910 C.3   248  LYS248      0.0271
     68  CG        51.8400   -0.4560   23.2430 C.3   248  LYS248      0.0035
     69  CD        53.0160   -1.2400   22.7060 C.3   248  LYS248      0.0206
     70  CE        54.3260   -0.5320   22.9110 C.3   248  LYS248      0.1093
     71  NZ        55.4290   -1.4020   22.4280 N.3   248  LYS248     -0.1314
     72  N         50.7180    3.4040   20.3560 N.3   250  LEU250     -0.1231
     73  CA        52.0110    3.9590   19.9700 C.3   250  LEU250      0.1693
     74  C         51.9270    5.4730   19.8560 C.2   250  LEU250      0.2591
     75  O         50.9970    6.0130   19.2580 O.2   250  LEU250     -0.2718
     76  CB        52.4650    3.3580   18.6330 C.3   250  LEU250      0.0284
     77  CG        52.5490    1.8220   18.5760 C.3   250  LEU250      0.0019
     78  CD1       53.0950    1.3920   17.2250 C.3   250  LEU250      0.0001
     79  CD2       53.4380    1.3090   19.6990 C.3   250  LEU250      0.0001
     80  N         52.9120    6.1530   20.4310 N.am  251  LEU251     -0.1980
     81  CA        52.9480    7.6100   20.4110 C.3   251  LEU251      0.1596
     82  C         54.2860    8.1320   19.9080 C.2   251  LEU251      0.2287
     83  O         55.3270    7.5090   20.1120 O.2   251  LEU251     -0.2864
     84  CB        52.6950    8.1460   21.8250 C.3   251  LEU251      0.0297
     85  CG        51.3670    7.7630   22.4920 C.3   251  LEU251      0.0022
     86  CD1       51.5150    7.8220   24.0030 C.3   251  LEU251      0.0001
     87  CD2       50.2610    8.6880   22.0100 C.3   251  LEU251      0.0001
@<TRIPOS>BOND
     1    58    57    2
     2    57    56    1
     3    55    56    1
     4    50    49    2
     5    49    48    1
     6    56    59    1
     7    36    37    1
     8    39    38    2
     9    38    37    1
    10    38    47   am
    11    48    47    1
    12    48    51    1
    13    37    40    1
    14    52    51    1
    15    52    53    1
    16    59    61    1
    17    59    60    1
    18    20    19    2
    19    17    18    1
    20    18    19    1
    21    18    21    1
    22    31    30    2
    23    19    28   am
    24    60    62    1
    25    53    54    1
    26    30    29    1
    27    40    41    1
    28    23    25   ar
    29    23    22   ar
    30    28    29    1
    31    41    42    1
    32    21    22    1
    33    25    27   ar
    34    29    32    1
    35    22    24   ar
    36    11    10    2
    37    27    26   ar
    38    42    43    1
    39    10     9    1
    40    32    33    1
    41     8     9    1
    42    24    26   ar
    43    43    44    2
    44     9    12    1
    45    44    45    1
    46    44    46    1
    47    33    35   ar
    48    33    34   ar
    49    12    13    1
    50    16    14   am
    51     6     5    1
    52    14    13    1
    53    14    15    2
    54    78    77    1
    55     5     2    1
    56     5     7    1
    57     2     1    1
    58     2     3    1
    59    77    76    1
    60    77    79    1
    61    76    73    1
    62    75    74    2
    63     3     4    2
    64    74    73    1
    65    74    80   am
    66    82    83    2
    67    82    81    1
    68    73    72    1
    69    81    80    1
    70    81    84    1
    71    66    65    2
    72    84    85    1
    73    87    85    1
    74    65    64    1
    75    71    70    1
    76    85    86    1
    77    69    70    1
    78    69    68    1
    79    63    64    1
    80    67    68    1
    81    67    64    1
