@<TRIPOS>MOLECULE
tmp/1m32F00.pdb
 103 93 0 0 0
SMALL
GASTEIGER

@<TRIPOS>ATOM
      1  N         25.9580  129.3130   55.0660 N.3    60  SER60      -0.1202
      2  CA        25.6250  130.1260   53.9020 C.3    60  SER60       0.2020
      3  C         26.4630  131.3980   53.9140 C.2    60  SER60       0.2619
      4  O         27.1830  131.6660   54.8770 O.2    60  SER60      -0.2717
      5  CB        24.1340  130.4830   53.9060 C.3    60  SER60       0.2103
      6  OG        23.8230  131.3840   54.9550 O.3    60  SER60      -0.2182
      7  N         26.3620  132.1800   52.8450 N.am   61  GLY61      -0.1942
      8  CA        27.1290  133.4110   52.7500 C.3    61  GLY61       0.2014
      9  C         26.9130  134.3820   53.8950 C.2    61  GLY61       0.2639
     10  O         27.8530  135.0370   54.3490 O.2    61  GLY61      -0.2714
     11  N         25.6750  134.4830   54.3620 N.am   62  SER62      -0.1949
     12  CA        25.3460  135.3870   55.4550 C.3    62  SER62       0.1924
     13  C         26.1410  135.0380   56.7080 C.2    62  SER62       0.2314
     14  O         26.4430  135.9120   57.5190 O.2    62  SER62      -0.2863
     15  CB        23.8450  135.3300   55.7500 C.3    62  SER62       0.2116
     16  OG        23.1030  135.7580   54.6210 O.3    62  SER62      -0.2180
     17  N         29.3790  136.6440   56.3270 N.3    65  VAL65      -0.1245
     18  CA        29.2080  138.0820   56.4900 C.3    65  VAL65       0.1561
     19  C         29.1050  138.3750   57.9880 C.2    65  VAL65       0.2260
     20  O         29.6950  139.3340   58.4830 O.2    65  VAL65      -0.2867
     21  CB        27.9270  138.5890   55.7860 C.3    65  VAL65       0.0252
     22  CG1       27.7310  140.0860   56.0640 C.3    65  VAL65       0.0019
     23  CG2       28.0260  138.3410   54.2870 C.3    65  VAL65       0.0019
     24  N         20.6910  143.0650   51.1600 N.3    87  TYR87      -0.1241
     25  CA        21.9370  142.5470   51.7070 C.3    87  TYR87       0.1605
     26  C         22.7390  143.5770   52.4740 C.2    87  TYR87       0.2264
     27  O         23.4930  143.2310   53.3760 O.2    87  TYR87      -0.2867
     28  CB        22.7430  141.9030   50.5880 C.3    87  TYR87       0.0534
     29  CG        21.9290  140.8040   49.9500 C.ar   87  TYR87      -0.0201
     30  CD1       21.5600  139.6760   50.6840 C.ar   87  TYR87      -0.0009
     31  CD2       21.4300  140.9390   48.6550 C.ar   87  TYR87      -0.0009
     32  CE1       20.7080  138.7130   50.1480 C.ar   87  TYR87       0.0417
     33  CE2       20.5730  139.9840   48.1110 C.ar   87  TYR87       0.0417
     34  CZ        20.2150  138.8770   48.8640 C.ar   87  TYR87       0.1957
     35  OH        19.3390  137.9550   48.3410 O.3    87  TYR87      -0.2866
     36  N         20.7290  143.7240   55.6890 N.3    90  ARG90      -0.1245
     37  CA        20.9850  142.6010   56.5780 C.3    90  ARG90       0.1563
     38  C         22.2360  142.8520   57.4240 C.2    90  ARG90       0.2260
     39  O         22.2980  142.4310   58.5760 O.2    90  ARG90      -0.2867
     40  CB        21.1360  141.3040   55.7770 C.3    90  ARG90       0.0307
     41  CG        21.3410  140.0670   56.6430 C.3    90  ARG90       0.0489
     42  CD        21.2220  138.7980   55.8200 C.3    90  ARG90       0.2205
     43  NE        19.8920  138.6670   55.2270 N.pl3  90  ARG90      -0.0865
     44  CZ        19.5790  137.7780   54.2910 C.cat  90  ARG90       0.5346
     45  NH1       18.3490  137.7260   53.8120 N.pl3  90  ARG90       0.1354
     46  NH2       20.5000  136.9430   53.8330 N.pl3  90  ARG90       0.1354
     47  N         28.0900  146.2580   49.8750 N.3   130  VAL130     -0.1245
     48  CA        27.8140  145.1500   48.9750 C.3   130  VAL130      0.1561
     49  C         28.2630  145.5630   47.5730 C.2   130  VAL130      0.2260
     50  O         27.9950  146.6840   47.1360 O.2   130  VAL130     -0.2867
     51  CB        26.2990  144.8320   48.9580 C.3   130  VAL130      0.0252
     52  CG1       25.9950  143.7680   47.9200 C.3   130  VAL130      0.0019
     53  CG2       25.8480  144.3770   50.3530 C.3   130  VAL130      0.0019
     54  N         27.6910  143.6800   44.4500 N.3   132  SER132     -0.1217
     55  CA        26.5660  143.4050   43.5660 C.3   132  SER132      0.1889
     56  C         25.3210  143.1050   44.3940 C.2   132  SER132      0.2288
     57  O         25.2120  142.0320   44.9940 O.2   132  SER132     -0.2866
     58  CB        26.8990  142.2080   42.6700 C.3   132  SER132      0.2089
     59  OG        25.7580  141.7370   41.9760 O.3   132  SER132     -0.2183
     60  N         22.2210  141.7550   44.5810 N.3   134  THR134     -0.1218
     61  CA        21.3660  140.8060   43.8800 C.3   134  THR134      0.1862
     62  C         19.8870  141.1720   43.9760 C.2   134  THR134      0.2287
     63  O         19.0690  140.7130   43.1800 O.2   134  THR134     -0.2866
     64  CB        21.5780  139.3970   44.4480 C.3   134  THR134      0.1770
     65  OG1       22.9800  139.1810   44.6510 O.3   134  THR134     -0.2211
     66  CG2       21.0580  138.3520   43.4860 C.3   134  THR134      0.0375
     67  N         31.1440  142.7510   50.4780 N.3   158  ASP158     -0.1239
     68  CA        30.3030  141.5780   50.2760 C.3   158  ASP158      0.1674
     69  C         30.2090  141.4130   48.7670 C.2   158  ASP158      0.2266
     70  O         29.4090  142.0800   48.1110 O.2   158  ASP158     -0.2867
     71  CB        28.9030  141.8050   50.8630 C.3   158  ASP158      0.1410
     72  CG        27.9300  140.6700   50.5330 C.2   158  ASP158      0.3668
     73  OD1       28.2920  139.7710   49.7420 O.co2 158  ASP158     -0.2456
     74  OD2       26.7960  140.6820   51.0630 O.co2 158  ASP158     -0.2456
     75  N         27.7970  137.8960   44.9750 N.3   160  SER160     -0.1217
     76  CA        27.3560  137.6400   43.6090 C.3   160  SER160      0.1889
     77  C         28.1910  138.3080   42.5200 C.2   160  SER160      0.2288
     78  O         27.7060  138.5170   41.4090 O.2   160  SER160     -0.2866
     79  CB        25.8870  138.0490   43.4490 C.3   160  SER160      0.2089
     80  OG        25.7140  139.4380   43.6620 O.3   160  SER160     -0.2183
     81  N         30.5530  133.7280   47.7620 N.3   179  SER179     -0.1217
     82  CA        29.8830  132.4370   47.8030 C.3   179  SER179      0.1889
     83  C         30.5380  131.3320   46.9920 C.2   179  SER179      0.2288
     84  O         31.3100  131.5830   46.0640 O.2   179  SER179     -0.2866
     85  CB        28.4380  132.6140   47.3280 C.3   179  SER179      0.2089
     86  OG        27.7450  131.3840   47.2670 O.3   179  SER179     -0.2183
     87  N         28.5480  129.0710   45.5960 N.3   181  ASN181     -0.1225
     88  CA        27.5480  128.7020   44.6000 C.3   181  ASN181      0.1785
     89  C         27.0030  129.7550   43.6430 C.2   181  ASN181      0.2597
     90  O         25.8810  129.6180   43.1550 O.2   181  ASN181     -0.2718
     91  CB        26.3620  128.0070   45.2840 C.3   181  ASN181      0.1169
     92  CG        25.7000  128.8770   46.3410 C.2   181  ASN181      0.2627
     93  OD1       26.1390  128.9200   47.4910 O.2   181  ASN181     -0.2716
     94  ND2       24.6440  129.5850   45.9490 N.am  181  ASN181     -0.0877
     95  N         27.7660  130.8030   43.3640 N.am  182  LYS182     -0.1980
     96  CA        27.2840  131.7950   42.4150 C.3   182  LYS182      0.1596
     97  C         28.2020  131.8470   41.1930 C.2   182  LYS182      0.2287
     98  O         28.2710  130.8760   40.4470 O.2   182  LYS182     -0.2864
     99  CB        27.1400  133.1680   43.0820 C.3   182  LYS182      0.0298
    100  CG        26.0240  133.2090   44.1390 C.3   182  LYS182      0.0038
    101  CD        25.6990  134.6270   44.5720 C.3   182  LYS182      0.0206
    102  CE        24.7950  134.6540   45.8030 C.3   182  LYS182      0.1093
    103  NZ        23.5040  133.9470   45.5890 N.3   182  LYS182     -0.1314
@<TRIPOS>BOND
     1    98    97    2
     2    97    96    1
     3    78    77    2
     4    59    58    1
     5    96    99    1
     6    96    95    1
     7    77    76    1
     8    58    55    1
     9    99   100    1
    10    90    89    2
    11    63    62    2
    12    95    89   am
    13    79    76    1
    14    79    80    1
    15    66    64    1
    16    55    56    1
    17    55    54    1
    18    76    75    1
    19    89    88    1
    20    61    62    1
    21    61    64    1
    22    61    60    1
    23   100   101    1
    24    56    57    2
    25    64    65    1
    26   101   102    1
    27    88    91    1
    28    88    87    1
    29    91    92    1
    30   103   102    1
    31    94    92   am
    32    84    83    2
    33    92    93    2
    34    83    82    1
    35    50    49    2
    36    86    85    1
    37    85    82    1
    38    49    48    1
    39    81    82    1
    40    52    51    1
    41    33    31   ar
    42    33    34   ar
    43    70    69    2
    44    35    34    1
    45    31    29   ar
    46    69    68    1
    47    34    32   ar
    48    51    48    1
    49    51    53    1
    50    48    47    1
    51    73    72   ar
    52    29    28    1
    53    29    30   ar
    54    32    30   ar
    55    68    67    1
    56    68    71    1
    57    72    71    1
    58    72    74   ar
    59    28    25    1
    60    24    25    1
    61    25    26    1
    62    26    27    2
    63     8     7    1
    64     8     9    1
    65     7     3   am
    66    45    44    1
    67    46    44    1
    68     9    10    2
    69     9    11   am
    70     2     5    1
    71     2     3    1
    72     2     1    1
    73     5     6    1
    74     3     4    2
    75    23    21    1
    76    44    43    2
    77    11    12    1
    78    16    15    1
    79    43    42    1
    80    12    15    1
    81    12    13    1
    82    36    37    1
    83    40    37    1
    84    40    41    1
    85    21    22    1
    86    21    18    1
    87    42    41    1
    88    17    18    1
    89    18    19    1
    90    37    38    1
    91    13    14    2
    92    38    39    2
    93    19    20    2
