@<TRIPOS>MOLECULE
tmp/1m32A01.pdb
 92 88 0 0 0
SMALL
GASTEIGER

@<TRIPOS>ATOM
      1  N         12.5570   36.0620   57.3940 N.3     6  PRO6       -0.2116
      2  CA        11.8850   34.8110   57.7530 C.3     6  PRO6        0.1372
      3  C         12.0130   33.7970   56.6150 C.2     6  PRO6        0.2244
      4  O         11.3410   32.7630   56.6100 O.2     6  PRO6       -0.2868
      5  CB        10.4470   35.2550   57.9820 C.3     6  PRO6        0.0268
      6  CG        10.2850   36.3430   56.9680 C.3     6  PRO6        0.0207
      7  CD        11.5750   37.1190   57.0880 C.3     6  PRO6        0.0892
      8  N         -1.3100   35.5170   57.2800 N.3    86  TYR86      -0.1241
      9  CA        -1.4150   34.1880   56.6960 C.3    86  TYR86       0.1605
     10  C         -2.7120   33.4710   57.0300 C.2    86  TYR86       0.2264
     11  O         -3.1930   32.6500   56.2510 O.2    86  TYR86      -0.2867
     12  CB        -0.1790   33.3840   57.0900 C.3    86  TYR86       0.0534
     13  CG         1.0630   34.1350   56.6720 C.ar   86  TYR86      -0.0201
     14  CD1        1.2930   34.4280   55.3270 C.ar   86  TYR86      -0.0009
     15  CD2        1.9460   34.6530   57.6170 C.ar   86  TYR86      -0.0009
     16  CE1        2.3620   35.2250   54.9330 C.ar   86  TYR86       0.0417
     17  CE2        3.0220   35.4540   57.2330 C.ar   86  TYR86       0.0417
     18  CZ         3.2200   35.7380   55.8890 C.ar   86  TYR86       0.1957
     19  OH         4.2510   36.5640   55.5000 O.3    86  TYR86      -0.2866
     20  N         -5.0970   35.1260   54.7290 N.3    89  ARG89      -0.1245
     21  CA        -4.9450   34.7010   53.3450 C.3    89  ARG89       0.1563
     22  C         -5.7360   33.4190   53.0920 C.2    89  ARG89       0.2260
     23  O         -6.2420   33.2080   51.9920 O.2    89  ARG89      -0.2867
     24  CB        -3.4670   34.4830   53.0010 C.3    89  ARG89       0.0307
     25  CG        -3.2200   34.1040   51.5400 C.3    89  ARG89       0.0489
     26  CD        -1.7290   34.1370   51.1970 C.3    89  ARG89       0.2205
     27  NE        -1.1830   35.4890   51.2960 N.pl3  89  ARG89      -0.0865
     28  CZ         0.1150   35.7800   51.2790 C.cat  89  ARG89       0.5346
     29  NH1        0.5120   37.0430   51.3770 N.pl3  89  ARG89       0.1354
     30  NH2        1.0180   34.8130   51.1710 N.pl3  89  ARG89       0.1354
     31  N          4.2730   34.4160   61.2160 N.3   133  THR133     -0.1203
     32  CA         5.4570   35.2000   60.9030 C.3   133  THR133      0.1994
     33  C          5.1700   36.6930   60.8890 C.2   133  THR133      0.2618
     34  O          6.0760   37.5140   61.0390 O.2   133  THR133     -0.2717
     35  CB         6.0080   34.7900   59.5410 C.3   133  THR133      0.1784
     36  OG1        5.9080   33.3680   59.4120 O.3   133  THR133     -0.2211
     37  CG2        7.4650   35.1950   59.4150 C.3   133  THR133      0.0376
     38  N          3.9020   37.0300   60.7020 N.am  134  THR134     -0.1952
     39  CA         3.4520   38.4160   60.6690 C.3   134  THR134      0.1897
     40  C          3.9070   39.1720   61.9120 C.2   134  THR134      0.2313
     41  O          4.5240   40.2310   61.8210 O.2   134  THR134     -0.2863
     42  CB         1.9140   38.4900   60.6240 C.3   134  THR134      0.1794
     43  OG1        1.4150   37.5560   59.6590 O.3   134  THR134     -0.2208
     44  CG2        1.4590   39.8920   60.2520 C.3   134  THR134      0.0378
     45  N         12.6140   27.9610   54.8760 N.3   181  LYS181     -0.1245
     46  CA        12.5880   28.6350   56.1670 C.3   181  LYS181      0.1561
     47  C         13.4000   27.8090   57.1580 C.2   181  LYS181      0.2260
     48  O         14.6070   27.6600   56.9730 O.2   181  LYS181     -0.2867
     49  CB        11.1530   28.8490   56.6490 C.3   181  LYS181      0.0271
     50  CG        10.3760   29.8460   55.7920 C.3   181  LYS181      0.0035
     51  CD         8.9970   30.1210   56.3710 C.3   181  LYS181      0.0206
     52  CE         8.1750   31.0100   55.4450 C.3   181  LYS181      0.1093
     53  NZ         8.8680   32.3020   55.1530 N.3   181  LYS181     -0.1314
     54  N         14.0240   43.1520   58.3060 N.3   314  TYR314     -0.1228
     55  CA        12.7600   43.0360   57.6010 C.3   314  TYR314      0.1721
     56  C         11.7070   44.0520   58.0340 C.2   314  TYR314      0.2437
     57  O         11.6310   44.4300   59.2000 O.2   314  TYR314     -0.2733
     58  CB        12.2250   41.6220   57.8270 C.3   314  TYR314      0.0547
     59  CG        11.5690   40.9720   56.6340 C.ar  314  TYR314     -0.0200
     60  CD1       10.2890   40.4340   56.7370 C.ar  314  TYR314     -0.0009
     61  CD2       12.2500   40.8300   55.4230 C.ar  314  TYR314     -0.0009
     62  CE1        9.7040   39.7650   55.6710 C.ar  314  TYR314      0.0417
     63  CE2       11.6730   40.1620   54.3490 C.ar  314  TYR314      0.0417
     64  CZ        10.3990   39.6290   54.4820 C.ar  314  TYR314      0.1957
     65  OH         9.8240   38.9390   53.4370 O.3   314  TYR314     -0.2866
     66  N         10.8770   44.5110   57.0890 N.am  315  PRO315     -0.2729
     67  CA         9.8420   45.4800   57.4520 C.3   315  PRO315      0.1401
     68  C          8.7420   44.7890   58.2480 C.2   315  PRO315      0.2269
     69  O          8.5460   43.5800   58.1330 O.2   315  PRO315     -0.2865
     70  CB         9.3510   45.9830   56.0980 C.3   315  PRO315      0.0296
     71  CG         9.5270   44.7780   55.2170 C.3   315  PRO315      0.0237
     72  CD        10.8870   44.2660   55.6370 C.3   315  PRO315      0.0939
     73  N          4.7320   44.3720   59.1310 N.3   317  LYS317     -0.1245
     74  CA         3.4290   44.6420   58.5380 C.3   317  LYS317      0.1561
     75  C          2.2970   44.3300   59.5090 C.2   317  LYS317      0.2260
     76  O          1.4560   43.4670   59.2540 O.2   317  LYS317     -0.2867
     77  CB         3.2430   43.8440   57.2450 C.3   317  LYS317      0.0271
     78  CG         2.0540   44.3160   56.4170 C.3   317  LYS317      0.0035
     79  CD         1.9160   43.5410   55.1190 C.3   317  LYS317      0.0206
     80  CE         0.8020   44.1170   54.2560 C.3   317  LYS317      0.1093
     81  NZ        -0.5060   44.1360   54.9680 N.3   317  LYS317     -0.1314
     82  N         10.8680   43.9610   61.7790 N.3   325  ARG325     -0.1245
     83  CA        11.1930   42.6160   62.2300 C.3   325  ARG325      0.1563
     84  C         12.6280   42.1840   61.9700 C.2   325  ARG325      0.2260
     85  O         13.2880   42.6650   61.0460 O.2   325  ARG325     -0.2867
     86  CB        10.2430   41.6020   61.5840 C.3   325  ARG325      0.0307
     87  CG         8.8080   41.6640   62.0840 C.3   325  ARG325      0.0489
     88  CD         7.9230   40.7210   61.2800 C.3   325  ARG325      0.2205
     89  NE         7.7810   41.1780   59.9040 N.pl3 325  ARG325     -0.0865
     90  CZ         7.3080   40.4370   58.9070 C.cat 325  ARG325      0.5346
     91  NH1        6.9230   39.1830   59.1190 N.pl3 325  ARG325      0.1354
     92  NH2        7.2190   40.9570   57.6930 N.pl3 325  ARG325      0.1354
@<TRIPOS>BOND
     1    30    28    1
     2    26    27    1
     3    26    25    1
     4    28    27    2
     5    28    29    1
     6    25    24    1
     7    23    22    2
     8    24    21    1
     9    22    21    1
    10    21    20    1
    11    65    64    1
    12    80    81    1
    13    80    79    1
    14    63    64   ar
    15    63    61   ar
    16    64    62   ar
    17    45    46    1
    18    16    14   ar
    19    16    18   ar
    20    79    78    1
    21    53    52    1
    22    71    72    1
    23    71    70    1
    24    14    13   ar
    25    61    59   ar
    26    52    51    1
    27    19    18    1
    28    72    66    1
    29    62    60   ar
    30    50    51    1
    31    50    49    1
    32    18    17   ar
    33    70    67    1
    34    46    49    1
    35    46    47    1
    36    11    10    2
    37    78    77    1
    38     4     3    2
    39     3     2    1
    40    59    60   ar
    41    59    58    1
    42    13    12    1
    43    13    15   ar
    44     9    10    1
    45     9    12    1
    46     9     8    1
    47     6     7    1
    48     6     5    1
    49    48    47    2
    50     7     1    1
    51    66    67    1
    52    66    56   am
    53    17    15   ar
    54    77    74    1
    55     1     2    1
    56    67    68    1
    57    55    58    1
    58    55    56    1
    59    55    54    1
    60    92    90    1
    61     2     5    1
    62    56    57    2
    63    69    68    2
    64    74    73    1
    65    74    75    1
    66    90    91    1
    67    90    89    2
    68    76    75    2
    69    36    35    1
    70    37    35    1
    71    35    32    1
    72    43    42    1
    73    89    88    1
    74    44    42    1
    75    42    39    1
    76    39    38    1
    77    39    40    1
    78    38    33   am
    79    33    32    1
    80    33    34    2
    81    32    31    1
    82    85    84    2
    83    88    87    1
    84    86    87    1
    85    86    83    1
    86    82    83    1
    87    41    40    2
    88    84    83    1
