@<TRIPOS>MOLECULE
tmp/1m3xA10.pdb
 103 96 0 0 0
SMALL
GASTEIGER

@<TRIPOS>ATOM
      1  N         25.8020   84.7070   39.3470 N.3   179  PHE179     -0.1241
      2  CA        25.4890   83.7770   38.2850 C.3   179  PHE179      0.1605
      3  C         25.4380   84.5070   36.9430 C.2   179  PHE179      0.2264
      4  O         25.9360   83.9950   35.9410 O.2   179  PHE179     -0.2867
      5  CB        24.1630   83.0820   38.5760 C.3   179  PHE179      0.0534
      6  CG        24.2870   81.9380   39.5430 C.ar  179  PHE179     -0.0203
      7  CD1       25.0420   80.8130   39.2110 C.ar  179  PHE179     -0.0042
      8  CD2       23.6490   81.9800   40.7810 C.ar  179  PHE179     -0.0042
      9  CE1       25.1630   79.7370   40.0930 C.ar  179  PHE179     -0.0003
     10  CE2       23.7610   80.9100   41.6750 C.ar  179  PHE179     -0.0003
     11  CZ        24.5230   79.7830   41.3260 C.ar  179  PHE179     -0.0000
     12  N         29.0560   85.2120   36.0240 N.3   182  THR182     -0.1218
     13  CA        29.7470   83.9660   35.7200 C.3   182  THR182      0.1862
     14  C         29.2740   83.3780   34.3880 C.2   182  THR182      0.2287
     15  O         30.0700   82.8460   33.6050 O.2   182  THR182     -0.2866
     16  CB        29.5190   82.9520   36.8570 C.3   182  THR182      0.1770
     17  OG1       30.0740   83.4790   38.0650 O.3   182  THR182     -0.2211
     18  CG2       30.1780   81.6270   36.5420 C.3   182  THR182      0.0375
     19  N         30.9070   85.1350   31.5550 N.3   185  LEU185     -0.1245
     20  CA        32.2930   84.7000   31.5160 C.3   185  LEU185      0.1561
     21  C         32.3620   83.3530   30.7690 C.2   185  LEU185      0.2260
     22  O         33.1470   83.1860   29.8250 O.2   185  LEU185     -0.2867
     23  CB        32.8150   84.5270   32.9440 C.3   185  LEU185      0.0270
     24  CG        34.3220   84.4500   33.2010 C.3   185  LEU185      0.0019
     25  CD1       34.5420   84.1500   34.6790 C.3   185  LEU185      0.0001
     26  CD2       34.9650   83.3720   32.3570 C.3   185  LEU185      0.0001
     27  N         34.0470   82.2510   27.0380 N.3   189  LEU189     -0.1245
     28  CA        35.0390   81.1930   26.9440 C.3   189  LEU189      0.1561
     29  C         34.6000   80.0970   25.9950 C.2   189  LEU189      0.2260
     30  O         35.3640   79.6870   25.1260 O.2   189  LEU189     -0.2867
     31  CB        35.3080   80.5900   28.3210 C.3   189  LEU189      0.0270
     32  CG        36.0340   81.5210   29.2950 C.3   189  LEU189      0.0019
     33  CD1       36.1750   80.8250   30.6310 C.3   189  LEU189      0.0001
     34  CD2       37.4050   81.9080   28.7390 C.3   189  LEU189      0.0001
     35  N         45.9730   75.9890   31.0320 N.3   219  LEU219     -0.1231
     36  CA        45.6390   77.2980   31.5760 C.3   219  LEU219      0.1693
     37  C         45.2330   77.3500   33.0450 C.2   219  LEU219      0.2592
     38  O         45.7960   78.1270   33.8160 O.2   219  LEU219     -0.2718
     39  CB        44.5410   77.9260   30.7210 C.3   219  LEU219      0.0284
     40  CG        44.2620   79.4140   30.9130 C.3   219  LEU219      0.0019
     41  CD1       45.4760   80.2320   30.4860 C.3   219  LEU219      0.0001
     42  CD2       43.0480   79.7950   30.0790 C.3   219  LEU219      0.0001
     43  N         44.2640   76.5340   33.4430 N.am  220  VAL220     -0.1966
     44  CA        43.8070   76.5590   34.8300 C.3   220  VAL220      0.1727
     45  C         43.8130   75.2060   35.5350 C.2   220  VAL220      0.2617
     46  O         43.2920   75.0740   36.6450 O.2   220  VAL220     -0.2715
     47  CB        42.3930   77.1730   34.9250 C.3   220  VAL220      0.0290
     48  CG1       42.3880   78.5370   34.2640 C.3   220  VAL220      0.0023
     49  CG2       41.3760   76.2690   34.2530 C.3   220  VAL220      0.0023
     50  N         44.3950   74.2000   34.8890 N.am  221  GLY221     -0.1940
     51  CA        44.4870   72.8850   35.4940 C.3   221  GLY221      0.2014
     52  C         43.2390   72.0290   35.4820 C.2   221  GLY221      0.2638
     53  O         43.1820   71.0040   36.1580 O.2   221  GLY221     -0.2714
     54  N         42.2320   72.4410   34.7240 N.am  222  TYR222     -0.1973
     55  CA        41.0030   71.6650   34.6480 C.3   222  TYR222      0.1639
     56  C         40.2080   72.0110   33.3970 C.2   222  TYR222      0.2290
     57  O         40.2550   73.1380   32.9120 O.2   222  TYR222     -0.2864
     58  CB        40.1350   71.9030   35.8850 C.3   222  TYR222      0.0560
     59  CG        38.8390   71.1250   35.8520 C.ar  222  TYR222     -0.0198
     60  CD1       38.8250   69.7450   36.0370 C.ar  222  TYR222     -0.0009
     61  CD2       37.6260   71.7660   35.5790 C.ar  222  TYR222     -0.0009
     62  CE1       37.6370   69.0170   35.9480 C.ar  222  TYR222      0.0417
     63  CE2       36.4340   71.0490   35.4890 C.ar  222  TYR222      0.0417
     64  CZ        36.4450   69.6780   35.6730 C.ar  222  TYR222      0.1957
     65  OH        35.2730   68.9670   35.5890 O.3   222  TYR222     -0.2866
     66  N         36.2560   71.1630   31.8570 N.3   224  ILE224     -0.1245
     67  CA        34.9820   70.5440   32.1520 C.3   224  ILE224      0.1561
     68  C         34.4950   69.6320   31.0290 C.2   224  ILE224      0.2260
     69  O         33.6690   68.7530   31.2580 O.2   224  ILE224     -0.2867
     70  CB        33.9240   71.6310   32.4990 C.3   224  ILE224      0.0252
     71  CG1       32.7120   70.9760   33.1570 C.3   224  ILE224      0.0019
     72  CG2       33.5180   72.4090   31.2530 C.3   224  ILE224      0.0019
     73  CD1       31.8130   71.9500   33.8630 C.3   224  ILE224      0.0001
     74  N         26.7600   73.3070   31.9950 N.3   232  LEU232     -0.1245
     75  CA        27.1000   74.4280   32.8620 C.3   232  LEU232      0.1561
     76  C         26.4090   75.7240   32.4300 C.2   232  LEU232      0.2260
     77  O         25.8750   76.4650   33.2630 O.2   232  LEU232     -0.2867
     78  CB        28.6230   74.6380   32.8870 C.3   232  LEU232      0.0270
     79  CG        29.1500   75.7340   33.8260 C.3   232  LEU232      0.0019
     80  CD1       28.8600   75.3540   35.2700 C.3   232  LEU232      0.0001
     81  CD2       30.6440   75.9410   33.6160 C.3   232  LEU232      0.0001
     82  N         22.8340   75.6170   33.4000 N.3   235  LEU235     -0.1231
     83  CA        22.6920   75.8020   34.8480 C.3   235  LEU235      0.1693
     84  C         22.9910   77.2040   35.3600 C.2   235  LEU235      0.2591
     85  O         22.2760   77.6990   36.2210 O.2   235  LEU235     -0.2718
     86  CB        23.5700   74.8110   35.6150 C.3   235  LEU235      0.0284
     87  CG        22.7980   73.6320   36.2110 C.3   235  LEU235      0.0019
     88  CD1       22.0240   72.8990   35.1140 C.3   235  LEU235      0.0001
     89  CD2       23.7710   72.6890   36.8950 C.3   235  LEU235      0.0001
     90  N         24.0540   77.8330   34.8630 N.am  236  LEU236     -0.1980
     91  CA        24.3780   79.1770   35.3130 C.3   236  LEU236      0.1596
     92  C         23.2280   80.1260   34.9620 C.2   236  LEU236      0.2287
     93  O         22.8250   80.9540   35.7820 O.2   236  LEU236     -0.2864
     94  CB        25.6800   79.6690   34.6730 C.3   236  LEU236      0.0297
     95  CG        26.9650   78.9390   35.0790 C.3   236  LEU236      0.0022
     96  CD1       28.1720   79.5890   34.4080 C.3   236  LEU236      0.0001
     97  CD2       27.1280   78.9970   36.5950 C.3   236  LEU236      0.0001
     98  N         19.9550   79.4370   36.9250 N.3   239  SER239     -0.1217
     99  CA        20.1800   79.7840   38.3270 C.3   239  SER239      0.1889
    100  C         20.1400   81.2900   38.5270 C.2   239  SER239      0.2288
    101  O         19.6240   81.7800   39.5360 O.2   239  SER239     -0.2866
    102  CB        21.5370   79.2610   38.8080 C.3   239  SER239      0.2089
    103  OG        21.5400   77.8490   38.8890 O.3   239  SER239     -0.2183
@<TRIPOS>BOND
     1    30    29    2
     2    29    28    1
     3    28    27    1
     4    28    31    1
     5    31    32    1
     6    34    32    1
     7    32    33    1
     8    22    21    2
     9    42    40    1
    10    41    40    1
    11    39    40    1
    12    39    36    1
    13    21    20    1
    14    68    69    2
    15    68    67    1
    16    35    36    1
    17    72    70    1
    18    20    19    1
    19    20    23    1
    20    36    37    1
    21    66    67    1
    22    74    75    1
    23    67    70    1
    24    26    24    1
    25    76    75    1
    26    76    77    2
    27    70    71    1
    28    75    78    1
    29    78    79    1
    30    57    56    2
    31    23    24    1
    32    37    43   am
    33    37    38    2
    34    71    73    1
    35    24    25    1
    36    56    55    1
    37    82    83    1
    38    43    44    1
    39    15    14    2
    40    81    79    1
    41    79    80    1
    42    49    47    1
    43    48    47    1
    44    14    13    1
    45    96    95    1
    46    55    54    1
    47    55    58    1
    48    94    95    1
    49    94    91    1
    50    54    52   am
    51    44    47    1
    52    44    45    1
    53    83    84    1
    54    83    86    1
    55    90    91    1
    56    90    84   am
    57    50    51    1
    58    50    45   am
    59    92    91    1
    60    92    93    2
    61    95    97    1
    62    88    87    1
    63    84    85    2
    64    52    51    1
    65    52    53    2
    66    63    61   ar
    67    63    64   ar
    68    45    46    2
    69    61    59   ar
    70    65    64    1
    71    86    87    1
    72    64    62   ar
    73    13    12    1
    74    13    16    1
    75    59    58    1
    76    59    60   ar
    77     4     3    2
    78    62    60   ar
    79    87    89    1
    80    18    16    1
    81    16    17    1
    82    98    99    1
    83     3     2    1
    84     2     5    1
    85     2     1    1
    86    99   100    1
    87    99   102    1
    88   100   101    2
    89     5     6    1
    90   102   103    1
    91     7     6   ar
    92     7     9   ar
    93     6     8   ar
    94     9    11   ar
    95     8    10   ar
    96    11    10   ar
