@<TRIPOS>MOLECULE
tmp/1m3xC01.pdb
 122 119 0 0 0
SMALL
GASTEIGER

@<TRIPOS>ATOM
      1  N         26.1400  102.1420   16.8020 N.3    11  TRP11      -0.1241
      2  CA        25.0020  101.5250   16.1360 C.3    11  TRP11       0.1605
      3  C         25.3700  101.1230   14.7260 C.2    11  TRP11       0.2264
      4  O         24.8350  100.1540   14.1970 O.2    11  TRP11      -0.2867
      5  CB        23.7910  102.4660   16.1130 C.3    11  TRP11       0.0550
      6  CG        23.0590  102.4490   17.4060 C.ar   11  TRP11       0.0003
      7  CD1       23.0880  103.4010   18.3800 C.ar   11  TRP11       0.0946
      8  CD2       22.2570  101.3790   17.9120 C.ar   11  TRP11       0.0152
      9  NE1       22.3580  102.9850   19.4730 N.ar   11  TRP11      -0.2442
     10  CE2       21.8370  101.7470   19.2090 C.ar   11  TRP11       0.0810
     11  CE3       21.8540  100.1380   17.3960 C.ar   11  TRP11       0.0012
     12  CZ2       21.0360  100.9210   19.9970 C.ar   11  TRP11       0.0191
     13  CZ3       21.0590   99.3190   18.1800 C.ar   11  TRP11       0.0001
     14  CH2       20.6580   99.7130   19.4650 C.ar   11  TRP11       0.0015
     15  N         27.4460   97.9940   15.1540 N.3    14  LEU14      -0.1245
     16  CA        26.5400   96.9030   15.4680 C.3    14  LEU14       0.1561
     17  C         25.7790   96.3880   14.2420 C.2    14  LEU14       0.2260
     18  O         25.5020   95.1910   14.1290 O.2    14  LEU14      -0.2867
     19  CB        25.5530   97.3530   16.5400 C.3    14  LEU14       0.0270
     20  CG        24.7690   96.2390   17.2260 C.3    14  LEU14       0.0019
     21  CD1       25.7490   95.3620   17.9870 C.3    14  LEU14       0.0001
     22  CD2       23.7290   96.8260   18.1780 C.3    14  LEU14       0.0001
     23  N         28.0650   94.2360   12.2920 N.3    17  LEU17      -0.1231
     24  CA        28.2660   92.9960   13.0160 C.3    17  LEU17       0.1693
     25  C         27.1140   92.0180   12.7420 C.2    17  LEU17       0.2591
     26  O         27.3470   90.8460   12.4350 O.2    17  LEU17      -0.2718
     27  CB        28.3640   93.2930   14.5110 C.3    17  LEU17       0.0284
     28  CG        28.6450   92.1120   15.4350 C.3    17  LEU17       0.0019
     29  CD1       29.9770   91.4570   15.0670 C.3    17  LEU17       0.0001
     30  CD2       28.6740   92.6130   16.8650 C.3    17  LEU17       0.0001
     31  N         25.8750   92.4910   12.8550 N.am   18  ILE18      -0.1980
     32  CA        24.7210   91.6310   12.5940 C.3    18  ILE18       0.1595
     33  C         24.7730   91.0960   11.1590 C.2    18  ILE18       0.2287
     34  O         24.4540   89.9370   10.8900 O.2    18  ILE18      -0.2864
     35  CB        23.3960   92.3990   12.8050 C.3    18  ILE18       0.0276
     36  CG1       23.1220   92.5520   14.3020 C.3    18  ILE18       0.0022
     37  CG2       22.2430   91.6700   12.1060 C.3    18  ILE18       0.0022
     38  CD1       22.8870   91.2420   15.0080 C.3    18  ILE18       0.0001
     39  N         27.4870   88.4650   11.0900 N.3    21  LEU21      -0.1231
     40  CA        26.9950   87.2900   11.7900 C.3    21  LEU21       0.1693
     41  C         25.9320   86.5120   11.0260 C.2    21  LEU21       0.2591
     42  O         25.9700   85.2870   10.9890 O.2    21  LEU21      -0.2718
     43  CB        26.4440   87.6720   13.1680 C.3    21  LEU21       0.0284
     44  CG        27.4650   88.0690   14.2370 C.3    21  LEU21       0.0019
     45  CD1       26.7240   88.4950   15.4910 C.3    21  LEU21       0.0001
     46  CD2       28.4050   86.9040   14.5420 C.3    21  LEU21       0.0001
     47  N         24.9830   87.2080   10.4140 N.am   22  GLN22      -0.1979
     48  CA        23.9390   86.5000    9.6940 C.3    22  GLN22       0.1601
     49  C         24.4680   85.7780    8.4610 C.2    22  GLN22       0.2287
     50  O         24.0690   84.6520    8.1920 O.2    22  GLN22      -0.2864
     51  CB        22.8060   87.4460    9.2950 C.3    22  GLN22       0.0394
     52  CG        21.6340   86.7300    8.6260 C.3    22  GLN22       0.0908
     53  CD        21.1020   85.5630    9.4560 C.2    22  GLN22       0.2608
     54  OE1       21.0150   85.6450   10.6890 O.2    22  GLN22      -0.2717
     55  NE2       20.7310   84.4770    8.7840 N.am   22  GLN22      -0.0878
     56  N         24.9910   81.3700    7.1510 N.3    26  MET26      -0.1245
     57  CA        24.3460   80.9180    5.9270 C.3    26  MET26       0.1570
     58  C         25.2740   79.9620    5.1630 C.2    26  MET26       0.2261
     59  O         25.0330   79.6440    3.9960 O.2    26  MET26      -0.2867
     60  CB        23.9860   82.1200    5.0440 C.3    26  MET26       0.0387
     61  CG        22.8170   82.9480    5.5730 C.3    26  MET26       0.0595
     62  SD        22.5760   84.4980    4.6610 S.3    26  MET26      -0.1393
     63  CE        22.0710   83.8800    3.0650 C.3    26  MET26       0.0692
     64  N         21.8730   76.7000    2.5310 N.3    30  TYR30      -0.1241
     65  CA        21.5510   77.6200    1.4520 C.3    30  TYR30       0.1605
     66  C         22.1950   77.2100    0.1400 C.2    30  TYR30       0.2264
     67  O         23.2020   76.4990    0.1200 O.2    30  TYR30      -0.2867
     68  CB        21.9940   79.0390    1.8010 C.3    30  TYR30       0.0534
     69  CG        21.2090   79.6390    2.9310 C.ar   30  TYR30      -0.0201
     70  CD1       21.4090   79.2100    4.2440 C.ar   30  TYR30      -0.0009
     71  CD2       20.2320   80.6090    2.6910 C.ar   30  TYR30      -0.0009
     72  CE1       20.6600   79.7220    5.2880 C.ar   30  TYR30       0.0417
     73  CE2       19.4750   81.1320    3.7290 C.ar   30  TYR30       0.0417
     74  CZ        19.6940   80.6810    5.0280 C.ar   30  TYR30       0.1957
     75  OH        18.9550   81.1730    6.0760 O.3    30  TYR30      -0.2866
     76  N         18.1070   78.5840   -0.4030 N.3    32  LEU32      -0.1245
     77  CA        16.8040   78.0380   -0.0600 C.3    32  LEU32       0.1561
     78  C         16.2140   77.3680   -1.2930 C.2    32  LEU32       0.2260
     79  O         16.5720   77.7060   -2.4210 O.2    32  LEU32      -0.2867
     80  CB        15.8730   79.1540    0.3640 C.3    32  LEU32       0.0270
     81  CG        16.3420   79.8890    1.6060 C.3    32  LEU32       0.0019
     82  CD1       15.3700   81.0100    1.8910 C.3    32  LEU32       0.0001
     83  CD2       16.4390   78.9040    2.7700 C.3    32  LEU32       0.0001
     84  N         12.8490   83.9630   -3.8030 N.3    42  ASN42      -0.1225
     85  CA        13.3210   84.8830   -2.7830 C.3    42  ASN42       0.1785
     86  C         14.2870   84.2180   -1.8080 C.2    42  ASN42       0.2597
     87  O         13.9140   83.3120   -1.0640 O.2    42  ASN42      -0.2718
     88  CB        12.1370   85.4840   -2.0200 C.3    42  ASN42       0.1169
     89  CG        12.5730   86.5110   -0.9900 C.2    42  ASN42       0.2627
     90  OD1       13.4240   87.3620   -1.2640 O.2    42  ASN42      -0.2716
     91  ND2       11.9850   86.4440    0.1990 N.am   42  ASN42      -0.0877
     92  N         15.5320   84.6830   -1.8200 N.am   43  GLN43      -0.1965
     93  CA        16.5700   84.1510   -0.9470 C.3    43  GLN43       0.1733
     94  C         16.7870   85.0030    0.3100 C.2    43  GLN43       0.2617
     95  O         17.5880   84.6470    1.1830 O.2    43  GLN43      -0.2715
     96  CB        17.8830   84.0450   -1.7190 C.3    43  GLN43       0.0408
     97  CG        17.8980   82.9630   -2.7820 C.3    43  GLN43       0.0908
     98  CD        17.8140   81.5690   -2.1890 C.2    43  GLN43       0.2608
     99  OE1       18.4610   81.2770   -1.1790 O.2    43  GLN43      -0.2717
    100  NE2       17.0300   80.6990   -2.8180 N.am   43  GLN43      -0.0878
    101  N         16.0700   86.1210    0.4030 N.am   44  GLY44      -0.1941
    102  CA        16.2190   87.0020    1.5470 C.3    44  GLY44       0.1998
    103  C         17.1220   88.1730    1.2020 C.2    44  GLY44       0.2481
    104  O         17.6410   88.2410    0.0870 O.2    44  GLY44      -0.2729
    105  N         17.3390   89.1130    2.1350 N.am   45  PRO45      -0.2715
    106  CA        18.1940   90.2770    1.8770 C.3    45  PRO45       0.1536
    107  C         19.6970   90.0280    1.9420 C.2    45  PRO45       0.2598
    108  O         20.4720   90.7540    1.3260 O.2    45  PRO45      -0.2715
    109  CB        17.7420   91.2700    2.9370 C.3    45  PRO45       0.0310
    110  CG        17.4210   90.3800    4.0920 C.3    45  PRO45       0.0237
    111  CD        16.6560   89.2440    3.4360 C.3    45  PRO45       0.0939
    112  N         20.1060   89.0070    2.6870 N.am   46  PHE46      -0.1974
    113  CA        21.5260   88.6930    2.8380 C.3    46  PHE46       0.1639
    114  C         22.0750   87.7660    1.7540 C.2    46  PHE46       0.2290
    115  O         21.4790   86.7360    1.4380 O.2    46  PHE46      -0.2864
    116  CB        21.7630   88.0550    4.2040 C.3    46  PHE46       0.0560
    117  CG        21.3250   88.9080    5.3500 C.ar   46  PHE46      -0.0200
    118  CD1       22.1150   89.9660    5.7840 C.ar   46  PHE46      -0.0042
    119  CD2       20.1140   88.6640    5.9920 C.ar   46  PHE46      -0.0042
    120  CE1       21.7100   90.7720    6.8450 C.ar   46  PHE46      -0.0003
    121  CE2       19.6960   89.4630    7.0530 C.ar   46  PHE46      -0.0003
    122  CZ        20.4980   90.5200    7.4810 C.ar   46  PHE46      -0.0000
@<TRIPOS>BOND
     1    84    85    1
     2   100    98   am
     3    85    88    1
     4    85    86    1
     5    97    98    1
     6    97    96    1
     7    79    78    2
     8    98    99    2
     9    88    89    1
    10    92    86   am
    11    92    93    1
    12    86    87    2
    13    96    93    1
    14    78    77    1
    15    90    89    2
    16    89    91   am
    17    93    94    1
    18    76    77    1
    19    77    80    1
    20   104   103    2
    21    67    66    2
    22    66    65    1
    23    94   101   am
    24    94    95    2
    25    80    81    1
    26   101   102    1
    27   103   102    1
    28   103   105   am
    29   108   107    2
    30   115   114    2
    31    65    68    1
    32    65    64    1
    33    81    82    1
    34    81    83    1
    35   114   113    1
    36    68    69    1
    37   106   107    1
    38   106   105    1
    39   106   109    1
    40   107   112   am
    41   105   111    1
    42   112   113    1
    43    71    69   ar
    44    71    73   ar
    45   113   116    1
    46    69    70   ar
    47   109   110    1
    48    63    62    1
    49   111   110    1
    50    73    74   ar
    51    59    58    2
    52   116   117    1
    53    70    72   ar
    54    62    61    1
    55    74    72   ar
    56    74    75    1
    57    60    61    1
    58    60    57    1
    59    58    57    1
    60   117   118   ar
    61   117   119   ar
    62   118   120   ar
    63    57    56    1
    64   119   121   ar
    65   120   122   ar
    66   121   122   ar
    67    50    49    2
    68    49    48    1
    69    52    51    1
    70    52    53    1
    71    55    53   am
    72    51    48    1
    73    53    54    2
    74    48    47    1
    75    47    41   am
    76    34    33    2
    77    42    41    2
    78    41    40    1
    79    39    40    1
    80    33    32    1
    81    40    43    1
    82    37    35    1
    83    23    24    1
    84    26    25    2
    85    32    35    1
    86    32    31    1
    87    25    31   am
    88    25    24    1
    89    35    36    1
    90    24    27    1
    91    43    44    1
    92    18    17    2
    93     4     3    2
    94    44    46    1
    95    44    45    1
    96    17    16    1
    97    36    38    1
    98    27    28    1
    99     3     2    1
   100    29    28    1
   101    15    16    1
   102    28    30    1
   103    16    19    1
   104     5     2    1
   105     5     6    1
   106     2     1    1
   107    19    20    1
   108    20    21    1
   109    20    22    1
   110    11     8   ar
   111    11    13   ar
   112     6     8   ar
   113     6     7   ar
   114     8    10   ar
   115    13    14   ar
   116     7     9   ar
   117    10     9   ar
   118    10    12   ar
   119    14    12   ar
