@<TRIPOS>MOLECULE
tmp/1m3xB10.pdb
 98 96 0 0 0
SMALL
GASTEIGER

@<TRIPOS>ATOM
      1  N         23.1370   65.0250   34.3520 N.3     7  PHE7       -0.1241
      2  CA        24.1240   64.3310   35.1800 C.3     7  PHE7        0.1605
      3  C         24.3720   62.9850   34.5040 C.2     7  PHE7        0.2264
      4  O         23.4420   62.3890   33.9670 O.2     7  PHE7       -0.2867
      5  CB        23.5840   64.0850   36.5920 C.3     7  PHE7        0.0534
      6  CG        23.4530   65.3280   37.4100 C.ar    7  PHE7       -0.0203
      7  CD1       24.5770   66.0930   37.7210 C.ar    7  PHE7       -0.0042
      8  CD2       22.2000   65.7530   37.8560 C.ar    7  PHE7       -0.0042
      9  CE1       24.4590   67.2660   38.4640 C.ar    7  PHE7       -0.0003
     10  CE2       22.0670   66.9250   38.5970 C.ar    7  PHE7       -0.0003
     11  CZ        23.2010   67.6860   38.9030 C.ar    7  PHE7       -0.0000
     12  N         33.1640   63.3820   42.0670 N.3    38  LEU38      -0.1231
     13  CA        32.1780   64.4330   42.2730 C.3    38  LEU38       0.1693
     14  C         31.9840   65.2040   40.9660 C.2    38  LEU38       0.2591
     15  O         30.8700   65.2950   40.4500 O.2    38  LEU38      -0.2718
     16  CB        32.6510   65.3830   43.3720 C.3    38  LEU38       0.0284
     17  CG        31.6660   66.4670   43.8160 C.3    38  LEU38       0.0019
     18  CD1       30.4770   65.8410   44.5320 C.3    38  LEU38       0.0001
     19  CD2       32.3830   67.4380   44.7320 C.3    38  LEU38       0.0001
     20  N         33.0740   65.7570   40.4390 N.am   39  LEU39      -0.1980
     21  CA        33.0340   66.5070   39.1890 C.3    39  LEU39       0.1596
     22  C         32.6120   65.6170   38.0140 C.2    39  LEU39       0.2287
     23  O         31.9600   66.0840   37.0800 O.2    39  LEU39      -0.2864
     24  CB        34.4090   67.1120   38.8850 C.3    39  LEU39       0.0297
     25  CG        34.9340   68.2200   39.7950 C.3    39  LEU39       0.0022
     26  CD1       36.2490   68.7490   39.2490 C.3    39  LEU39       0.0001
     27  CD2       33.9170   69.3430   39.8660 C.3    39  LEU39       0.0001
     28  N         30.3100   63.5710   37.5960 N.3    41  TRP41      -0.1227
     29  CA        28.8760   63.4260   37.3570 C.3    41  TRP41       0.1737
     30  C         28.3690   64.5350   36.4470 C.2    41  TRP41       0.2595
     31  O         27.3490   64.3870   35.7700 O.2    41  TRP41      -0.2718
     32  CB        28.1080   63.5060   38.6720 C.3    41  TRP41       0.0564
     33  CG        28.3570   62.3770   39.5990 C.ar   41  TRP41       0.0003
     34  CD1       28.8920   62.4480   40.8570 C.ar   41  TRP41       0.0946
     35  CD2       28.0340   61.0010   39.3760 C.ar   41  TRP41       0.0152
     36  NE1       28.9180   61.1980   41.4310 N.ar   41  TRP41      -0.2442
     37  CE2       28.3960   60.2910   40.5450 C.ar   41  TRP41       0.0810
     38  CE3       27.4740   60.2990   38.3010 C.ar   41  TRP41       0.0012
     39  CZ2       28.2150   58.9090   40.6720 C.ar   41  TRP41       0.0191
     40  CZ3       27.2940   58.9200   38.4250 C.ar   41  TRP41       0.0001
     41  CH2       27.6640   58.2420   39.6050 C.ar   41  TRP41       0.0015
     42  N         29.1010   65.6430   36.4390 N.am   42  PHE42      -0.1976
     43  CA        28.7290   66.8180   35.6690 C.3    42  PHE42       0.1639
     44  C         29.5930   67.0270   34.4210 C.2    42  PHE42       0.2290
     45  O         29.0780   67.3300   33.3420 O.2    42  PHE42      -0.2864
     46  CB        28.8180   68.0400   36.5920 C.3    42  PHE42       0.0560
     47  CG        27.9500   69.1810   36.1750 C.ar   42  PHE42      -0.0200
     48  CD1       26.5630   69.0440   36.1530 C.ar   42  PHE42      -0.0042
     49  CD2       28.5150   70.3980   35.8140 C.ar   42  PHE42      -0.0042
     50  CE1       25.7470   70.1100   35.7760 C.ar   42  PHE42      -0.0003
     51  CE2       27.7130   71.4710   35.4350 C.ar   42  PHE42      -0.0003
     52  CZ        26.3240   71.3300   35.4150 C.ar   42  PHE42      -0.0000
     53  N         41.6840   66.0720   37.1240 N.3    47  LEU47      -0.1245
     54  CA        42.2070   67.3490   37.5880 C.3    47  LEU47       0.1561
     55  C         43.6630   67.3400   37.1590 C.2    47  LEU47       0.2260
     56  O         44.3450   66.3330   37.3270 O.2    47  LEU47      -0.2867
     57  CB        42.1110   67.4490   39.1040 C.3    47  LEU47       0.0270
     58  CG        40.6810   67.5120   39.6380 C.3    47  LEU47       0.0019
     59  CD1       40.7100   67.4420   41.1530 C.3    47  LEU47       0.0001
     60  CD2       40.0050   68.7950   39.1650 C.3    47  LEU47       0.0001
     61  N         48.6140   70.9920   34.9760 N.3    50  ILE50      -0.1245
     62  CA        48.5390   72.4320   34.7740 C.3    50  ILE50       0.1561
     63  C         49.9110   72.8350   34.2190 C.2    50  ILE50       0.2260
     64  O         50.9140   72.1880   34.5060 O.2    50  ILE50      -0.2867
     65  CB        48.2380   73.1430   36.1340 C.3    50  ILE50       0.0252
     66  CG1       47.6060   74.5190   35.9110 C.3    50  ILE50       0.0019
     67  CG2       49.5080   73.2620   36.9550 C.3    50  ILE50       0.0019
     68  CD1       48.4920   75.5200   35.2510 C.3    50  ILE50       0.0001
     69  N         52.8400   75.4920   34.2080 N.3    52  LEU52      -0.1245
     70  CA        53.3800   76.6210   34.9560 C.3    52  LEU52       0.1561
     71  C         54.7050   77.0920   34.4070 C.2    52  LEU52       0.2260
     72  O         55.7610   76.5810   34.7880 O.2    52  LEU52      -0.2867
     73  CB        53.5460   76.2500   36.4290 C.3    52  LEU52       0.0270
     74  CG        52.2520   75.9210   37.1800 C.3    52  LEU52       0.0019
     75  CD1       52.5650   75.6140   38.6390 C.3    52  LEU52       0.0001
     76  CD2       51.2810   77.0950   37.0750 C.3    52  LEU52       0.0001
     77  N         50.9150   84.2810   39.1540 N.3    60  LEU60      -0.1245
     78  CA        50.4660   83.6850   40.4070 C.3    60  LEU60       0.1561
     79  C         51.0940   84.3480   41.6380 C.2    60  LEU60       0.2260
     80  O         50.4610   84.4370   42.6930 O.2    60  LEU60      -0.2867
     81  CB        50.7800   82.1880   40.4230 C.3    60  LEU60       0.0270
     82  CG        50.1110   81.4010   41.5550 C.3    60  LEU60       0.0019
     83  CD1       48.6240   81.2590   41.2440 C.3    60  LEU60       0.0001
     84  CD2       50.7450   80.0240   41.6910 C.3    60  LEU60       0.0001
     85  N         48.7810   87.2940   33.0350 N.3   129  TRP129     -0.1241
     86  CA        47.8540   86.1920   32.8300 C.3   129  TRP129      0.1605
     87  C         47.2660   86.2930   31.4250 C.2   129  TRP129      0.2264
     88  O         46.9310   85.2830   30.8060 O.2   129  TRP129     -0.2867
     89  CB        46.7290   86.2240   33.8630 C.3   129  TRP129      0.0550
     90  CG        45.8630   85.0150   33.7750 C.ar  129  TRP129      0.0003
     91  CD1       44.7740   84.8350   32.9660 C.ar  129  TRP129      0.0946
     92  CD2       46.0740   83.7680   34.4450 C.ar  129  TRP129      0.0152
     93  NE1       44.2960   83.5510   33.0940 N.ar  129  TRP129     -0.2442
     94  CE2       45.0760   82.8740   33.9930 C.ar  129  TRP129      0.0810
     95  CE3       47.0100   83.3170   35.3840 C.ar  129  TRP129      0.0012
     96  CZ2       44.9920   81.5540   34.4470 C.ar  129  TRP129      0.0191
     97  CZ3       46.9250   82.0030   35.8360 C.ar  129  TRP129      0.0001
     98  CH2       45.9230   81.1380   35.3650 C.ar  129  TRP129      0.0015
@<TRIPOS>BOND
     1    88    87    2
     2    87    86    1
     3    86    85    1
     4    86    89    1
     5    91    93   ar
     6    91    90   ar
     7    93    94   ar
     8    45    44    2
     9    90    89    1
    10    90    92   ar
    11     4     3    2
    12    94    92   ar
    13    94    96   ar
    14    69    70    1
    15    63    64    2
    16    63    62    1
    17     1     2    1
    18    71    72    2
    19    71    70    1
    20    44    43    1
    21    92    95   ar
    22    96    98   ar
    23     3     2    1
    24    62    61    1
    25    62    65    1
    26    70    73    1
    27     2     5    1
    28    68    66    1
    29    98    97   ar
    30    95    97   ar
    31    52    51   ar
    32    52    50   ar
    33    51    49   ar
    34    43    42    1
    35    43    46    1
    36    31    30    2
    37    50    48   ar
    38    49    47   ar
    39    66    65    1
    40    65    67    1
    41    48    47   ar
    42    47    46    1
    43    73    74    1
    44    42    30   am
    45    30    29    1
    46     5     6    1
    47    76    74    1
    48    23    22    2
    49    53    54    1
    50    55    56    2
    51    55    54    1
    52    74    75    1
    53    29    28    1
    54    29    32    1
    55     6     7   ar
    56     6     8   ar
    57    54    57    1
    58     7     9   ar
    59     8    10   ar
    60    22    21    1
    61    38    40   ar
    62    38    35   ar
    63    40    41   ar
    64     9    11   ar
    65    10    11   ar
    66    32    33    1
    67    24    21    1
    68    24    25    1
    69    57    58    1
    70    77    78    1
    71    60    58    1
    72    21    20    1
    73    26    25    1
    74    35    33   ar
    75    35    37   ar
    76    33    34   ar
    77    41    39   ar
    78    58    59    1
    79    25    27    1
    80    78    81    1
    81    78    79    1
    82    81    82    1
    83    20    14   am
    84    15    14    2
    85    37    39   ar
    86    37    36   ar
    87    34    36   ar
    88    14    13    1
    89    83    82    1
    90    82    84    1
    91    79    80    2
    92    12    13    1
    93    13    16    1
    94    16    17    1
    95    17    18    1
    96    17    19    1
