@<TRIPOS>MOLECULE
tmp/1m3xA08.pdb
 112 106 0 0 0
SMALL
GASTEIGER

@<TRIPOS>ATOM
      1  N         31.5300   82.4060   31.2000 N.3   186  ALA186     -0.1245
      2  CA        31.4880   81.0830   30.5980 C.3   186  ALA186      0.1562
      3  C         31.0890   81.1100   29.1130 C.2   186  ALA186      0.2260
      4  O         31.6450   80.3630   28.3040 O.2   186  ALA186     -0.2867
      5  CB        30.5310   80.1840   31.3790 C.3   186  ALA186      0.0290
      6  N         34.0470   82.2510   27.0380 N.3   189  LEU189     -0.1231
      7  CA        35.0390   81.1930   26.9440 C.3   189  LEU189      0.1693
      8  C         34.6000   80.0970   25.9950 C.2   189  LEU189      0.2592
      9  O         35.3640   79.6870   25.1260 O.2   189  LEU189     -0.2718
     10  CB        35.3080   80.5900   28.3210 C.3   189  LEU189      0.0284
     11  CG        36.0340   81.5210   29.2950 C.3   189  LEU189      0.0019
     12  CD1       36.1750   80.8250   30.6310 C.3   189  LEU189      0.0001
     13  CD2       37.4050   81.9080   28.7390 C.3   189  LEU189      0.0001
     14  N         33.3720   79.6180   26.1540 N.am  190  HIS190     -0.1976
     15  CA        32.9100   78.5610   25.2690 C.3   190  HIS190      0.1656
     16  C         32.9850   79.0070   23.8190 C.2   190  HIS190      0.2291
     17  O         33.4530   78.2640   22.9590 O.2   190  HIS190     -0.2864
     18  CB        31.4810   78.1600   25.5830 C.3   190  HIS190      0.0771
     19  CG        30.9600   77.0960   24.6680 C.ar  190  HIS190      0.0820
     20  ND1       31.5710   75.8700   24.5430 N.ar  190  HIS190     -0.2267
     21  CD2       29.9010   77.0760   23.8250 C.ar  190  HIS190      0.1154
     22  CE1       30.9080   75.1400   23.6640 C.ar  190  HIS190      0.1986
     23  NE2       29.8910   75.8490   23.2110 N.ar  190  HIS190     -0.2212
     24  N         36.6480   79.1590   22.7660 N.3   193  LEU193     -0.1245
     25  CA        37.2930   77.8510   22.6630 C.3   193  LEU193      0.1561
     26  C         36.9800   77.1400   21.3490 C.2   193  LEU193      0.2260
     27  O         37.8920   76.7980   20.5900 O.2   193  LEU193     -0.2867
     28  CB        36.8860   76.9570   23.8360 C.3   193  LEU193      0.0270
     29  CG        37.8580   75.8120   24.1260 C.3   193  LEU193      0.0019
     30  CD1       39.2470   76.3850   24.4430 C.3   193  LEU193      0.0001
     31  CD2       37.3390   74.9860   25.2900 C.3   193  LEU193      0.0001
     32  N         41.1580   71.3030   22.8300 N.3   212  GLU212     -0.1231
     33  CA        40.3060   72.1630   23.6330 C.3   212  GLU212      0.1699
     34  C         40.5100   71.8400   25.1130 C.2   212  GLU212      0.2592
     35  O         40.6720   72.7480   25.9230 O.2   212  GLU212     -0.2718
     36  CB        38.8360   71.9750   23.2450 C.3   212  GLU212      0.0402
     37  CG        38.4710   72.5450   21.8870 C.3   212  GLU212      0.1161
     38  CD        36.9900   72.3910   21.5690 C.2   212  GLU212      0.3649
     39  OE1       36.5250   71.2480   21.3670 O.co2 212  GLU212     -0.2457
     40  OE2       36.2890   73.4190   21.5280 O.co2 212  GLU212     -0.2457
     41  N         40.5090   70.5490   25.4560 N.am  213  ASP213     -0.1974
     42  CA        40.7110   70.1280   26.8450 C.3   213  ASP213      0.1709
     43  C         42.1270   70.4430   27.2970 C.2   213  ASP213      0.2293
     44  O         42.3390   70.9060   28.4160 O.2   213  ASP213     -0.2864
     45  CB        40.4640   68.6280   27.0140 C.3   213  ASP213      0.1436
     46  CG        38.9920   68.2680   27.0160 C.2   213  ASP213      0.3671
     47  OD1       38.1690   69.0690   27.5120 O.co2 213  ASP213     -0.2456
     48  OD2       38.6480   67.1700   26.5420 O.co2 213  ASP213     -0.2456
     49  N         42.6700   74.1950   28.1990 N.3   216  PHE216     -0.1241
     50  CA        42.1930   74.6120   29.5140 C.3   216  PHE216      0.1605
     51  C         42.9150   73.9950   30.6980 C.2   216  PHE216      0.2264
     52  O         42.9810   74.6020   31.7690 O.2   216  PHE216     -0.2867
     53  CB        40.6830   74.4020   29.6350 C.3   216  PHE216      0.0534
     54  CG        39.9110   75.6620   29.4410 C.ar  216  PHE216     -0.0203
     55  CD1       39.8070   76.5900   30.4740 C.ar  216  PHE216     -0.0042
     56  CD2       39.3890   75.9880   28.1930 C.ar  216  PHE216     -0.0042
     57  CE1       39.1990   77.8310   30.2640 C.ar  216  PHE216     -0.0003
     58  CE2       38.7800   77.2240   27.9680 C.ar  216  PHE216     -0.0003
     59  CZ        38.6860   78.1490   29.0060 C.ar  216  PHE216     -0.0000
     60  N         44.2640   76.5340   33.4430 N.3   220  VAL220     -0.1245
     61  CA        43.8070   76.5590   34.8300 C.3   220  VAL220      0.1561
     62  C         43.8130   75.2060   35.5350 C.2   220  VAL220      0.2260
     63  O         43.2920   75.0740   36.6450 O.2   220  VAL220     -0.2867
     64  CB        42.3930   77.1730   34.9250 C.3   220  VAL220      0.0252
     65  CG1       42.3880   78.5370   34.2640 C.3   220  VAL220      0.0019
     66  CG2       41.3760   76.2690   34.2530 C.3   220  VAL220      0.0019
     67  N         42.2320   72.4410   34.7240 N.3   222  TYR222     -0.1227
     68  CA        41.0030   71.6650   34.6480 C.3   222  TYR222      0.1736
     69  C         40.2080   72.0110   33.3970 C.2   222  TYR222      0.2596
     70  O         40.2550   73.1380   32.9120 O.2   222  TYR222     -0.2718
     71  CB        40.1350   71.9030   35.8850 C.3   222  TYR222      0.0548
     72  CG        38.8390   71.1250   35.8520 C.ar  222  TYR222     -0.0200
     73  CD1       38.8250   69.7450   36.0370 C.ar  222  TYR222     -0.0009
     74  CD2       37.6260   71.7660   35.5790 C.ar  222  TYR222     -0.0009
     75  CE1       37.6370   69.0170   35.9480 C.ar  222  TYR222      0.0417
     76  CE2       36.4340   71.0490   35.4890 C.ar  222  TYR222      0.0417
     77  CZ        36.4450   69.6780   35.6730 C.ar  222  TYR222      0.1957
     78  OH        35.2730   68.9670   35.5890 O.3   222  TYR222     -0.2866
     79  N         39.5020   71.0190   32.8630 N.am  223  SER223     -0.1938
     80  CA        38.6630   71.2010   31.6850 C.3   223  SER223      0.2055
     81  C         37.3690   70.4590   31.9680 C.2   223  SER223      0.2643
     82  O         37.3700   69.2700   32.2910 O.2   223  SER223     -0.2714
     83  CB        39.3300   70.6280   30.4400 C.3   223  SER223      0.2130
     84  OG        38.4800   70.7900   29.3230 O.3   223  SER223     -0.2179
     85  N         36.2560   71.1630   31.8570 N.am  224  ILE224     -0.1963
     86  CA        34.9820   70.5440   32.1520 C.3   224  ILE224      0.1727
     87  C         34.4950   69.6320   31.0290 C.2   224  ILE224      0.2616
     88  O         33.6690   68.7530   31.2580 O.2   224  ILE224     -0.2715
     89  CB        33.9240   71.6310   32.4990 C.3   224  ILE224      0.0290
     90  CG1       32.7120   70.9760   33.1570 C.3   224  ILE224      0.0022
     91  CG2       33.5180   72.4090   31.2530 C.3   224  ILE224      0.0023
     92  CD1       31.8130   71.9500   33.8630 C.3   224  ILE224      0.0001
     93  N         35.0180   69.8230   29.8210 N.am  225  GLY225     -0.1955
     94  CA        34.5940   68.9820   28.7140 C.3   225  GLY225      0.1869
     95  C         33.4730   69.5650   27.8650 C.2   225  GLY225      0.2309
     96  O         32.7370   70.4540   28.2980 O.2   225  GLY225     -0.2863
     97  N         30.3080   71.6530   29.5790 N.3   229  ILE229     -0.1245
     98  CA        30.1770   73.0910   29.4480 C.3   229  ILE229      0.1561
     99  C         28.8140   73.5370   28.9240 C.2   229  ILE229      0.2260
    100  O         28.4150   74.6820   29.1370 O.2   229  ILE229     -0.2867
    101  CB        31.2460   73.6880   28.5530 C.3   229  ILE229      0.0252
    102  CG1       31.2740   75.1910   28.7890 C.3   229  ILE229      0.0019
    103  CG2       30.9750   73.3440   27.0970 C.3   229  ILE229      0.0019
    104  CD1       32.0630   75.9080   27.7840 C.3   229  ILE229      0.0001
    105  N         26.7600   73.3070   31.9950 N.3   232  LEU232     -0.1245
    106  CA        27.1000   74.4280   32.8620 C.3   232  LEU232      0.1561
    107  C         26.4090   75.7240   32.4300 C.2   232  LEU232      0.2260
    108  O         25.8750   76.4650   33.2630 O.2   232  LEU232     -0.2867
    109  CB        28.6230   74.6380   32.8870 C.3   232  LEU232      0.0270
    110  CG        29.1500   75.7340   33.8260 C.3   232  LEU232      0.0019
    111  CD1       28.8600   75.3540   35.2700 C.3   232  LEU232      0.0001
    112  CD2       30.6440   75.9410   33.6160 C.3   232  LEU232      0.0001
@<TRIPOS>BOND
     1    27    26    2
     2    26    25    1
     3    39    38   ar
     4    40    38   ar
     5    38    37    1
     6    37    36    1
     7    25    24    1
     8    25    28    1
     9    32    33    1
    10    17    16    2
    11    23    22   ar
    12    23    21   ar
    13    36    33    1
    14    33    34    1
    15    22    20   ar
    16    16    15    1
    17    21    19   ar
    18    28    29    1
    19    29    30    1
    20    29    31    1
    21    20    19   ar
    22    19    18    1
    23    34    41   am
    24    34    35    2
    25     9     8    2
    26    15    18    1
    27    15    14    1
    28    41    42    1
    29     8    14   am
    30     8     7    1
    31    48    46   ar
    32    42    45    1
    33    42    43    1
    34     7     6    1
    35     7    10    1
    36    45    46    1
    37    46    47   ar
    38   103   101    1
    39    43    44    2
    40   104   102    1
    41    95    96    2
    42    95    94    1
    43    58    56   ar
    44    58    59   ar
    45    56    54   ar
    46    49    50    1
    47     4     3    2
    48    10    11    1
    49   101   102    1
    50   101    98    1
    51    94    93    1
    52    13    11    1
    53    99   100    2
    54    99    98    1
    55    59    57   ar
    56     3     2    1
    57    11    12    1
    58    84    83    1
    59    54    53    1
    60    54    55   ar
    61    98    97    1
    62    50    53    1
    63    50    51    1
    64    93    87   am
    65    57    55   ar
    66    83    80    1
    67     2     1    1
    68     2     5    1
    69    51    52    2
    70    87    88    2
    71    87    86    1
    72    91    89    1
    73    80    81    1
    74    80    79    1
    75    85    81   am
    76    85    86    1
    77    81    82    2
    78   105   106    1
    79    86    89    1
    80   107   106    1
    81   107   108    2
    82    89    90    1
    83   106   109    1
    84    79    69   am
    85   109   110    1
    86    70    69    2
    87    90    92    1
    88    69    68    1
    89    60    61    1
    90   112   110    1
    91   110   111    1
    92    66    64    1
    93    65    64    1
    94    68    67    1
    95    68    71    1
    96    61    64    1
    97    61    62    1
    98    76    74   ar
    99    76    77   ar
   100    62    63    2
   101    74    72   ar
   102    78    77    1
   103    77    75   ar
   104    72    71    1
   105    72    73   ar
   106    75    73   ar
