@<TRIPOS>MOLECULE
tmp/1m3xB00.pdb
 114 113 0 0 0
SMALL
GASTEIGER

@<TRIPOS>ATOM
      1  N         22.6750  100.9770   29.2230 N.3   203  GLY203     -0.1210
      2  CA        21.5190  100.2050   28.8030 C.3   203  GLY203      0.1956
      3  C         21.8470   99.1050   27.8080 C.2   203  GLY203      0.2611
      4  O         21.2390   98.0300   27.8330 O.2   203  GLY203     -0.2717
      5  N         22.7960   99.3850   26.9160 N.am  204  LEU204     -0.1979
      6  CA        23.2340   98.4320   25.8960 C.3   204  LEU204      0.1596
      7  C         23.9510   97.2940   26.6290 C.2   204  LEU204      0.2287
      8  O         23.7320   96.1090   26.3690 O.2   204  LEU204     -0.2864
      9  CB        24.2010   99.1250   24.9310 C.3   204  LEU204      0.0297
     10  CG        23.8690   99.3590   23.4500 C.3   204  LEU204      0.0022
     11  CD1       22.4400   99.0060   23.1030 C.3   204  LEU204      0.0001
     12  CD2       24.1680  100.8120   23.1360 C.3   204  LEU204      0.0001
     13  N         21.6640   95.0250   28.0700 N.3   207  ALA207     -0.1231
     14  CA        21.0880   94.2970   26.9550 C.3   207  ALA207      0.1694
     15  C         21.8860   93.0150   26.6930 C.2   207  ALA207      0.2592
     16  O         21.3350   91.9120   26.5810 O.2   207  ALA207     -0.2718
     17  CB        21.1530   95.1540   25.7560 C.3   207  ALA207      0.0304
     18  N         23.1980   93.1880   26.5840 N.am  208  PHE208     -0.1976
     19  CA        24.0830   92.0750   26.3160 C.3   208  PHE208      0.1639
     20  C         24.2500   91.1410   27.5080 C.2   208  PHE208      0.2290
     21  O         24.4500   89.9410   27.3350 O.2   208  PHE208     -0.2864
     22  CB        25.4260   92.6170   25.8430 C.3   208  PHE208      0.0560
     23  CG        25.3150   93.4180   24.5940 C.ar  208  PHE208     -0.0200
     24  CD1       24.7320   92.8640   23.4640 C.ar  208  PHE208     -0.0042
     25  CD2       25.7560   94.7370   24.5430 C.ar  208  PHE208     -0.0042
     26  CE1       24.5890   93.6100   22.3000 C.ar  208  PHE208     -0.0003
     27  CE2       25.6190   95.4930   23.3840 C.ar  208  PHE208     -0.0003
     28  CZ        25.0330   94.9290   22.2560 C.ar  208  PHE208     -0.0000
     29  N         14.4890   77.5330   13.3980 N.3   253  ARG253     -0.1245
     30  CA        13.9500   78.1100   12.1870 C.3   253  ARG253      0.1563
     31  C         12.4250   78.0530   12.2360 C.2   253  ARG253      0.2260
     32  O         11.7520   79.0120   11.8580 O.2   253  ARG253     -0.2867
     33  CB        14.4540   77.3550   10.9670 C.3   253  ARG253      0.0307
     34  CG        14.1080   78.0640    9.6970 C.3   253  ARG253      0.0489
     35  CD        14.5840   77.3140    8.4930 C.3   253  ARG253      0.2205
     36  NE        14.1910   78.0330    7.2930 N.pl3 253  ARG253     -0.0865
     37  CZ        14.7390   79.1720    6.8910 C.cat 253  ARG253      0.5346
     38  NH1       15.7250   79.7350    7.5840 N.pl3 253  ARG253      0.1354
     39  NH2       14.2540   79.7630    5.8110 N.pl3 253  ARG253      0.1354
     40  N         11.3900   80.7250   15.4290 N.3   256  MET256     -0.1230
     41  CA        11.5260   82.1580   15.2170 C.3   256  MET256      0.1702
     42  C         11.8430   82.6530   13.8150 C.2   256  MET256      0.2593
     43  O         12.1500   83.8260   13.6360 O.2   256  MET256     -0.2718
     44  CB        12.5620   82.7250   16.1830 C.3   256  MET256      0.0401
     45  CG        13.9240   82.0910   16.0800 C.3   256  MET256      0.0596
     46  SD        15.0620   82.8260   17.2760 S.3   256  MET256     -0.1393
     47  CE        16.6130   82.5660   16.4630 C.3   256  MET256      0.0692
     48  N         11.7990   81.7770   12.8220 N.am  257  GLY257     -0.1942
     49  CA        12.0410   82.2370   11.4660 C.3   257  GLY257      0.2014
     50  C         13.4450   82.2090   10.9090 C.2   257  GLY257      0.2639
     51  O         13.6220   82.3670    9.7070 O.2   257  GLY257     -0.2714
     52  N         14.4530   82.0510   11.7510 N.am  258  PHE258     -0.1959
     53  CA        15.8110   81.9770   11.2390 C.3   258  PHE258      0.1771
     54  C         16.6560   81.1070   12.1540 C.2   258  PHE258      0.2619
     55  O         16.1990   80.6870   13.2220 O.2   258  PHE258     -0.2715
     56  CB        16.4210   83.3770   11.0500 C.3   258  PHE258      0.0574
     57  CG        16.7410   84.1000   12.3290 C.ar  258  PHE258     -0.0200
     58  CD1       18.0700   84.3360   12.6860 C.ar  258  PHE258     -0.0042
     59  CD2       15.7210   84.5760   13.1600 C.ar  258  PHE258     -0.0042
     60  CE1       18.3870   85.0440   13.8560 C.ar  258  PHE258     -0.0003
     61  CE2       16.0240   85.2850   14.3370 C.ar  258  PHE258     -0.0003
     62  CZ        17.3610   85.5210   14.6850 C.ar  258  PHE258     -0.0000
     63  N         17.8860   80.8330   11.7350 N.am  259  ASN259     -0.1972
     64  CA        18.7360   79.9480   12.5060 C.3   259  ASN259      0.1688
     65  C         20.2220   80.1740   12.2950 C.2   259  ASN259      0.2292
     66  O         20.6520   81.0120   11.4950 O.2   259  ASN259     -0.2864
     67  CB        18.3930   78.5050   12.1390 C.3   259  ASN259      0.1181
     68  CG        18.5700   78.2360   10.6540 C.2   259  ASN259      0.2629
     69  OD1       19.6920   78.1730   10.1570 O.2   259  ASN259     -0.2716
     70  ND2       17.4640   78.1020    9.9370 N.am  259  ASN259     -0.0877
     71  N         28.0260   84.1220   17.4680 N.3   268  TRP268     -0.1241
     72  CA        26.9860   84.9090   18.1220 C.3   268  TRP268      0.1605
     73  C         27.3520   84.9620   19.6010 C.2   268  TRP268      0.2264
     74  O         27.3200   86.0220   20.2230 O.2   268  TRP268     -0.2867
     75  CB        25.6080   84.2390   18.0080 C.3   268  TRP268      0.0550
     76  CG        24.8520   84.5120   16.7580 C.ar  268  TRP268      0.0003
     77  CD1       24.6900   83.6730   15.7040 C.ar  268  TRP268      0.0946
     78  CD2       24.1430   85.7170   16.4300 C.ar  268  TRP268      0.0152
     79  NE1       23.9250   84.2710   14.7290 N.ar  268  TRP268     -0.2442
     80  CE2       23.5770   85.5280   15.1490 C.ar  268  TRP268      0.0810
     81  CE3       23.9320   86.9360   17.0930 C.ar  268  TRP268      0.0012
     82  CZ2       22.8120   86.5130   14.5120 C.ar  268  TRP268      0.0191
     83  CZ3       23.1700   87.9170   16.4640 C.ar  268  TRP268      0.0001
     84  CH2       22.6200   87.6980   15.1830 C.ar  268  TRP268      0.0015
     85  N         30.5020   87.1750   20.6660 N.3   271  TRP271     -0.1227
     86  CA        30.2030   88.6110   20.6020 C.3   271  TRP271      0.1737
     87  C         29.1800   89.1290   21.6190 C.2   271  TRP271      0.2595
     88  O         29.3540   90.2040   22.1920 O.2   271  TRP271     -0.2718
     89  CB        29.7570   89.0070   19.1970 C.3   271  TRP271      0.0564
     90  CG        30.8940   89.1590   18.2590 C.ar  271  TRP271      0.0003
     91  CD1       31.2700   88.2920   17.2710 C.ar  271  TRP271      0.0946
     92  CD2       31.8330   90.2400   18.2230 C.ar  271  TRP271      0.0152
     93  NE1       32.3850   88.7700   16.6190 N.ar  271  TRP271     -0.2442
     94  CE2       32.7500   89.9650   17.1830 C.ar  271  TRP271      0.0810
     95  CE3       31.9890   91.4170   18.9690 C.ar  271  TRP271      0.0012
     96  CZ2       33.8080   90.8260   16.8690 C.ar  271  TRP271      0.0191
     97  CZ3       33.0460   92.2770   18.6560 C.ar  271  TRP271      0.0001
     98  CH2       33.9390   91.9720   17.6160 C.ar  271  TRP271      0.0015
     99  N         28.1130   88.3720   21.8270 N.am  272  MET272     -0.1979
    100  CA        27.0980   88.7540   22.7920 C.3   272  MET272      0.1605
    101  C         27.7470   89.0140   24.1540 C.2   272  MET272      0.2287
    102  O         27.4100   89.9740   24.8440 O.2   272  MET272     -0.2864
    103  CB        26.0750   87.6290   22.9300 C.3   272  MET272      0.0413
    104  CG        24.9380   87.9300   23.8880 C.3   272  MET272      0.0598
    105  SD        23.8610   89.1850   23.1910 S.3   272  MET272     -0.1393
    106  CE        22.7250   88.1660   22.3010 C.3   272  MET272      0.0692
    107  N         30.5580   92.0390   24.0400 N.3   275  LEU275     -0.1245
    108  CA        29.9500   93.3720   23.9950 C.3   275  LEU275      0.1561
    109  C         29.4910   93.9050   25.3650 C.2   275  LEU275      0.2260
    110  O         29.3750   95.1190   25.5590 O.2   275  LEU275     -0.2867
    111  CB        28.7760   93.3860   23.0050 C.3   275  LEU275      0.0270
    112  CG        29.1550   93.2360   21.5270 C.3   275  LEU275      0.0019
    113  CD1       27.9040   93.0800   20.6790 C.3   275  LEU275      0.0001
    114  CD2       29.9580   94.4490   21.0830 C.3   275  LEU275      0.0001
@<TRIPOS>BOND
     1    39    37    1
     2    37    36    2
     3    37    38    1
     4    36    35    1
     5    35    34    1
     6    34    33    1
     7    51    50    2
     8    70    68   am
     9    69    68    2
    10    68    67    1
    11    50    49    1
    12    50    52   am
    13    33    30    1
    14    56    53    1
    15    56    57    1
    16    53    52    1
    17    53    54    1
    18    49    48    1
    19    66    65    2
    20    63    54   am
    21    63    64    1
    22    32    31    2
    23    67    64    1
    24    54    55    2
    25    30    31    1
    26    30    29    1
    27    65    64    1
    28    57    58   ar
    29    57    59   ar
    30    58    60   ar
    31    48    42   am
    32    59    61   ar
    33    43    42    2
    34    42    41    1
    35    60    62   ar
    36    61    62   ar
    37    82    80   ar
    38    82    84   ar
    39    79    80   ar
    40    79    77   ar
    41    80    78   ar
    42    84    83   ar
    43    41    40    1
    44    41    44    1
    45    77    76   ar
    46    45    44    1
    47    45    46    1
    48    78    76   ar
    49    78    81   ar
    50    47    46    1
    51    83    81   ar
    52    93    94   ar
    53    93    91   ar
    54    76    75    1
    55    96    94   ar
    56    96    98   ar
    57    94    92   ar
    58    91    90   ar
    59    71    72    1
    60    98    97   ar
    61    75    72    1
    62    72    73    1
    63    92    90   ar
    64    92    95   ar
    65    90    89    1
    66    97    95   ar
    67    89    86    1
    68    73    74    2
    69    86    85    1
    70    86    87    1
    71   113   112    1
    72   114   112    1
    73   112   111    1
    74    87    99   am
    75    87    88    2
    76    99   100    1
    77    28    26   ar
    78    28    27   ar
    79    26    24   ar
    80   106   105    1
    81   100   103    1
    82   100   101    1
    83   103   104    1
    84   111   108    1
    85    11    10    1
    86    12    10    1
    87   105   104    1
    88    27    25   ar
    89    10     9    1
    90    24    23   ar
    91   108   107    1
    92   108   109    1
    93   101   102    2
    94    25    23   ar
    95    23    22    1
    96     9     6    1
    97   109   110    2
    98    17    14    1
    99    22    19    1
   100     6     7    1
   101     6     5    1
   102    19    18    1
   103    19    20    1
   104     8     7    2
   105    16    15    2
   106    18    15   am
   107    15    14    1
   108     5     3   am
   109    14    13    1
   110    21    20    2
   111     3     4    2
   112     3     2    1
   113     2     1    1
