@<TRIPOS>MOLECULE
tmp/1m40A00.pdb
 91 84 0 0 0
SMALL
GASTEIGER

@<TRIPOS>ATOM
      1  N         10.3780    4.2790   34.9470 N.3    45  SER45      -0.1217
      2  CA         9.1160    4.3230   35.6500 C.3    45  SER45       0.1889
      3  C          7.9670    3.6080   34.9460 C.2    45  SER45       0.2288
      4  O          6.8990    3.4640   35.5400 O.2    45  SER45      -0.2866
      5  CB         8.6940    5.7580   35.9080 C.3    45  SER45       0.2089
      6  OG         9.6040    6.3850   36.8020 O.3    45  SER45      -0.2183
      7  N          6.0420    0.9920   36.8980 N.3    48  LYS48      -0.1245
      8  CA         5.0640    1.2940   37.9310 C.3    48  LYS48       0.1561
      9  C          3.6630    0.7990   37.5720 C.2    48  LYS48       0.2260
     10  O          2.8640    0.5010   38.4540 O.2    48  LYS48      -0.2867
     11  CB         5.0850    2.7970   38.2520 C.3    48  LYS48       0.0271
     12  CG         6.4070    3.2110   38.9050 C.3    48  LYS48       0.0035
     13  CD         6.6220    4.7090   38.9770 C.3    48  LYS48       0.0206
     14  CE         8.0020    5.0280   39.5300 C.3    48  LYS48       0.1093
     15  NZ         8.4670    6.4200   39.3300 N.3    48  LYS48      -0.1314
     16  N         12.3590   12.7390   43.8990 N.3    80  TYR80      -0.1241
     17  CA        11.1910   12.9340   43.0710 C.3    80  TYR80       0.1605
     18  C          9.9850   12.1720   43.6680 C.2    80  TYR80       0.2264
     19  O          9.6080   11.0950   43.2790 O.2    80  TYR80      -0.2867
     20  CB        11.4070   12.6340   41.5720 C.3    80  TYR80       0.0534
     21  CG        10.1590   13.0110   40.8180 C.ar   80  TYR80      -0.0201
     22  CD1        9.7910   14.3210   40.6400 C.ar   80  TYR80      -0.0009
     23  CD2        9.3060   12.0310   40.3480 C.ar   80  TYR80      -0.0009
     24  CE1        8.6320   14.6710   39.9870 C.ar   80  TYR80       0.0417
     25  CE2        8.1310   12.3470   39.7220 C.ar   80  TYR80       0.0417
     26  CZ         7.7950   13.6660   39.5470 C.ar   80  TYR80       0.1957
     27  OH         6.5990   14.0410   38.9430 O.3    80  TYR80      -0.2866
     28  N          4.2520    9.6830   38.6450 N.3   105  SER105     -0.1217
     29  CA         5.5410    8.9760   38.6580 C.3   105  SER105      0.1889
     30  C          6.2720    9.0980   39.9890 C.2   105  SER105      0.2288
     31  O          7.4920    8.9910   40.0520 O.2   105  SER105     -0.2866
     32  CB         6.4470    9.3520   37.4800 C.3   105  SER105      0.2089
     33  OG         7.1170    8.1830   37.0520 O.3   105  SER105     -0.2183
     34  N          8.2740    8.4760   43.1210 N.3   107  ASN107     -0.1240
     35  CA         9.2090    7.3970   43.3730 C.3   107  ASN107      0.1653
     36  C          9.0640    6.7610   44.7440 C.2   107  ASN107      0.2266
     37  O          9.1940    5.5450   44.8830 O.2   107  ASN107     -0.2867
     38  CB        10.6430    7.8770   43.1620 C.3   107  ASN107      0.1155
     39  CG        10.9760    7.9760   41.6870 C.2   107  ASN107      0.2627
     40  OD1       10.5540    7.1260   40.8990 O.2   107  ASN107     -0.2716
     41  ND2       11.7820    8.9630   41.3360 N.am  107  ASN107     -0.0877
     42  N         13.7400    2.2850   43.7870 N.3   141  GLU141     -0.1231
     43  CA        14.0810    3.6640   43.4730 C.3   141  GLU141      0.1684
     44  C         15.1130    4.1470   44.5060 C.2   141  GLU141      0.2434
     45  O         14.9070    3.9230   45.6950 O.2   141  GLU141     -0.2733
     46  CB        12.8420    4.5800   43.5780 C.3   141  GLU141      0.0402
     47  CG        11.7410    4.2080   42.6140 C.3   141  GLU141      0.1161
     48  CD        12.0500    4.5440   41.1970 C.2   141  GLU141      0.3649
     49  OE1       13.0710    5.1080   40.8510 O.co2 141  GLU141     -0.2457
     50  OE2       11.1120    4.1570   40.3500 O.co2 141  GLU141     -0.2457
     51  N         16.2110    4.7900   44.1070 N.am  142  PRO142     -0.2729
     52  CA        16.4630    5.3490   42.7640 C.3   142  PRO142      0.1401
     53  C         17.2290    4.4410   41.8160 C.2   142  PRO142      0.2269
     54  O         17.3040    4.7680   40.6150 O.2   142  PRO142     -0.2865
     55  CB        17.3750    6.5690   43.1080 C.3   142  PRO142      0.0296
     56  CG        18.1580    6.1110   44.3300 C.3   142  PRO142      0.0237
     57  CD        17.1230    5.3480   45.1380 C.3   142  PRO142      0.0939
     58  N         16.8160    3.0840   37.9040 N.3   145  ASN145     -0.1240
     59  CA        16.9290    3.9290   36.7110 C.3   145  ASN145      0.1653
     60  C         18.3650    4.0840   36.1870 C.2   145  ASN145      0.2266
     61  O         18.5670    4.8780   35.2610 O.2   145  ASN145     -0.2867
     62  CB        16.3500    5.3040   36.9760 C.3   145  ASN145      0.1155
     63  CG        14.8910    5.2660   37.4250 C.2   145  ASN145      0.2627
     64  OD1       14.0250    4.7570   36.7080 O.2   145  ASN145     -0.2716
     65  ND2       14.6430    5.7790   38.6010 N.am  145  ASN145     -0.0877
     66  N         11.8170    8.0140   32.5500 N.3   212  ALA212     -0.1231
     67  CA        13.0790    8.6910   32.2780 C.3   212  ALA212      0.1694
     68  C         14.1080    8.1630   33.2680 C.2   212  ALA212      0.2593
     69  O         13.7950    7.9450   34.4350 O.2   212  ALA212     -0.2718
     70  CB        12.9550   10.1990   32.4370 C.3   212  ALA212      0.0304
     71  N         15.3400    7.9860   32.8140 N.am  213  GLY213     -0.1942
     72  CA        16.3670    7.5380   33.6910 C.3   213  GLY213      0.2014
     73  C         17.7330    8.1030   33.3030 C.2   213  GLY213      0.2638
     74  O         17.8330    9.0990   32.5870 O.2   213  GLY213     -0.2714
     75  N         18.7860    7.4590   33.7960 N.am  214  GLU214     -0.1977
     76  CA        20.1460    7.8730   33.5190 C.3   214  GLU214      0.1602
     77  C         20.4830    7.5460   32.0560 C.2   214  GLU214      0.2287
     78  O         19.7920    6.7940   31.3630 O.2   214  GLU214     -0.2864
     79  CB        21.1260    7.2330   34.4580 C.3   214  GLU214      0.0415
     80  CG        20.9280    7.5530   35.9380 C.3   214  GLU214      0.1163
     81  CD        21.0190    8.9920   36.3370 C.2   214  GLU214      0.3649
     82  OE1       20.8010    9.2780   37.5500 O.co2 214  GLU214     -0.2457
     83  OE2       21.1930    9.8820   35.5010 O.co2 214  GLU214     -0.2457
     84  N         16.4570   16.3540   27.3940 N.3   245  MET245     -0.1245
     85  CA        15.1160   15.8450   27.6200 C.3   245  MET245      0.1570
     86  C         14.1490   16.3310   26.5430 C.2   245  MET245      0.2261
     87  O         13.3590   15.5510   26.0200 O.2   245  MET245     -0.2867
     88  CB        14.5710   16.2450   28.9970 C.3   245  MET245      0.0387
     89  CG        13.2380   15.5820   29.3070 C.3   245  MET245      0.0595
     90  SD        13.3940   13.7860   29.4570 S.3   245  MET245     -0.1393
     91  CE        14.2070   13.7310   31.0120 C.3   245  MET245      0.0692
@<TRIPOS>BOND
     1    87    86    2
     2    86    85    1
     3    84    85    1
     4    85    88    1
     5    88    89    1
     6    89    90    1
     7    90    91    1
     8    78    77    2
     9    77    76    1
    10    67    70    1
    11    67    66    1
    12    67    68    1
    13    74    73    2
    14    71    68   am
    15    71    72    1
    16    68    69    2
    17    73    72    1
    18    73    75   am
    19    76    75    1
    20    76    79    1
    21    79    80    1
    22     3     4    2
    23     3     2    1
    24     1     2    1
    25    61    60    2
    26    83    81   ar
    27     2     5    1
    28     5     6    1
    29    80    81    1
    30    60    59    1
    31    81    82   ar
    32    64    63    2
    33    59    62    1
    34    59    58    1
    35     7     8    1
    36    62    63    1
    37    33    32    1
    38    63    65   am
    39    32    29    1
    40     9     8    1
    41     9    10    2
    42     8    11    1
    43    11    12    1
    44    28    29    1
    45    29    30    1
    46    12    13    1
    47    27    26    1
    48    13    14    1
    49    15    14    1
    50    26    25   ar
    51    26    24   ar
    52    25    23   ar
    53    24    22   ar
    54    30    31    2
    55    23    21   ar
    56    50    48   ar
    57    54    53    2
    58    22    21   ar
    59    21    20    1
    60    49    48   ar
    61    40    39    2
    62    48    47    1
    63    41    39   am
    64    20    17    1
    65    39    38    1
    66    53    52    1
    67    47    46    1
    68    52    55    1
    69    52    51    1
    70    17    18    1
    71    17    16    1
    72    55    56    1
    73    34    35    1
    74    38    35    1
    75    19    18    2
    76    35    36    1
    77    43    46    1
    78    43    42    1
    79    43    44    1
    80    51    44   am
    81    51    57    1
    82    56    57    1
    83    44    45    2
    84    36    37    2
