@<TRIPOS>MOLECULE
tmp/1m48A00.pdb
 123 120 0 0 0
SMALL
GASTEIGER

@<TRIPOS>ATOM
      1  N          2.7910    4.4450  -12.9400 N.3    32  LYS32      -0.1245
      2  CA         2.6650    4.9110  -11.5630 C.3    32  LYS32       0.1561
      3  C          3.8840    5.7440  -11.1370 C.2    32  LYS32       0.2260
      4  O          3.7490    6.8670  -10.6660 O.2    32  LYS32      -0.2867
      5  CB         2.4920    3.7120  -10.6300 C.3    32  LYS32       0.0271
      6  CG         2.4320    4.0370   -9.1460 C.3    32  LYS32       0.0035
      7  CD         2.4000    2.7510   -8.3180 C.3    32  LYS32       0.0206
      8  CE         1.1560    1.9180   -8.6210 C.3    32  LYS32       0.1093
      9  NZ         1.1600    0.6220   -7.8750 N.3    32  LYS32      -0.1314
     10  N          4.1350    9.3390  -12.8180 N.3    35  ARG35      -0.1231
     11  CA         3.1850   10.2680  -12.1930 C.3    35  ARG35       0.1694
     12  C          3.6280   10.6460  -10.7860 C.2    35  ARG35       0.2591
     13  O          3.6080   11.8160  -10.4020 O.2    35  ARG35      -0.2718
     14  CB         1.7850    9.6470  -12.0450 C.3    35  ARG35       0.0321
     15  CG         1.2100    8.8880  -13.2430 C.3    35  ARG35       0.0489
     16  CD         0.2630    9.6760  -14.1560 C.3    35  ARG35       0.2205
     17  NE        -0.9320   10.2160  -13.5050 N.pl3  35  ARG35      -0.0865
     18  CZ        -2.1490    9.6590  -13.5010 C.cat  35  ARG35       0.5346
     19  NH1       -2.3920    8.4960  -14.0940 N.pl3  35  ARG35       0.1354
     20  NH2       -3.1380   10.2760  -12.8730 N.pl3  35  ARG35       0.1354
     21  N          3.9800    9.6430   -9.9980 N.am   36  MET36      -0.1979
     22  CA         4.3180    9.8770   -8.6040 C.3    36  MET36       0.1605
     23  C          5.4710   10.8550   -8.4540 C.2    36  MET36       0.2287
     24  O          5.4930   11.6720   -7.5280 O.2    36  MET36      -0.2864
     25  CB         4.6560    8.5670   -7.9140 C.3    36  MET36       0.0413
     26  CG         5.0940    8.7530   -6.4830 C.3    36  MET36       0.0598
     27  SD         5.3820    7.2200   -5.6740 S.3    36  MET36      -0.1393
     28  CE         7.0720    6.9520   -6.1290 C.3    36  MET36       0.0692
     29  N          6.1140   13.4750  -10.1900 N.3    38  THR38      -0.1203
     30  CA         5.8010   14.8550  -10.5530 C.3    38  THR38       0.1994
     31  C          5.0220   15.5870   -9.4370 C.2    38  THR38       0.2618
     32  O          4.6440   16.7400   -9.5750 O.2    38  THR38      -0.2717
     33  CB         4.9850   14.8960  -11.8500 C.3    38  THR38       0.1784
     34  OG1        3.8270   14.0680  -11.6940 O.3    38  THR38      -0.2211
     35  CG2        5.7580   14.2310  -13.0060 C.3    38  THR38       0.0376
     36  N          4.7840   14.8860   -8.3480 N.am   39  PHE39      -0.1961
     37  CA         4.0650   15.4060   -7.1990 C.3    39  PHE39       0.1771
     38  C          5.1220   16.1190   -6.3570 C.2    39  PHE39       0.2619
     39  O          6.1020   15.5110   -5.9230 O.2    39  PHE39      -0.2715
     40  CB         3.4330   14.2150   -6.4770 C.3    39  PHE39       0.0574
     41  CG         2.5660   14.5700   -5.2960 C.ar   39  PHE39      -0.0200
     42  CD1        3.1270   14.8790   -4.0650 C.ar   39  PHE39      -0.0042
     43  CD2        1.1800   14.5100   -5.4010 C.ar   39  PHE39      -0.0042
     44  CE1        2.3320   15.1670   -2.9650 C.ar   39  PHE39      -0.0003
     45  CE2        0.3760   14.8040   -4.3040 C.ar   39  PHE39      -0.0003
     46  CZ         0.9610   15.1340   -3.0810 C.ar   39  PHE39      -0.0000
     47  N          4.9680   17.4200   -6.1730 N.am   40  LYS40      -0.1963
     48  CA         6.0020   18.1840   -5.4890 C.3    40  LYS40       0.1728
     49  C          5.8710   18.3030   -3.9750 C.2    40  LYS40       0.2616
     50  O          4.7720   18.3420   -3.4230 O.2    40  LYS40      -0.2715
     51  CB         6.1520   19.5660   -6.1240 C.3    40  LYS40       0.0311
     52  CG         6.3350   19.5670   -7.6400 C.3    40  LYS40       0.0038
     53  CD         7.1580   18.3840   -8.1840 C.3    40  LYS40       0.0206
     54  CE         8.5970   18.3310   -7.6530 C.3    40  LYS40       0.1093
     55  NZ         9.4570   19.4530   -8.1430 N.3    40  LYS40      -0.1314
     56  N          7.0240   18.3100   -3.3130 N.am   41  PHE41      -0.1960
     57  CA         7.1240   18.5050   -1.8730 C.3    41  PHE41       0.1771
     58  C          7.9010   19.7740   -1.5340 C.2    41  PHE41       0.2619
     59  O          8.8320   20.1700   -2.2400 O.2    41  PHE41      -0.2715
     60  CB         7.7850   17.3030   -1.2150 C.3    41  PHE41       0.0574
     61  CG         6.9390   16.0580   -1.2270 C.ar   41  PHE41      -0.0200
     62  CD1        6.0740   15.7840   -0.1780 C.ar   41  PHE41      -0.0042
     63  CD2        7.0060   15.1680   -2.2850 C.ar   41  PHE41      -0.0042
     64  CE1        5.3060   14.6380   -0.1740 C.ar   41  PHE41      -0.0003
     65  CE2        6.2300   14.0140   -2.2950 C.ar   41  PHE41      -0.0003
     66  CZ         5.3810   13.7420   -1.2270 C.ar   41  PHE41      -0.0000
     67  N          7.5110   20.4210   -0.4470 N.am   42  TYR42      -0.1974
     68  CA         8.2120   21.6150   -0.0060 C.3    42  TYR42       0.1639
     69  C          9.3390   21.2110    0.9400 C.2    42  TYR42       0.2290
     70  O          9.1290   20.3790    1.8270 O.2    42  TYR42      -0.2864
     71  CB         7.2680   22.6030    0.6670 C.3    42  TYR42       0.0560
     72  CG         6.3360   23.2660   -0.3110 C.ar   42  TYR42      -0.0198
     73  CD1        6.7090   24.4240   -0.9900 C.ar   42  TYR42      -0.0009
     74  CD2        5.0910   22.7270   -0.5740 C.ar   42  TYR42      -0.0009
     75  CE1        5.8500   25.0300   -1.8900 C.ar   42  TYR42       0.0417
     76  CE2        4.2230   23.3250   -1.4730 C.ar   42  TYR42       0.0417
     77  CZ         4.6080   24.4730   -2.1280 C.ar   42  TYR42       0.1957
     78  OH         3.7470   25.0650   -3.0200 O.3    42  TYR42      -0.2866
     79  N          4.1620   18.6190    5.8530 N.3    59  GLU59      -0.1245
     80  CA         4.0950   17.9480    4.5750 C.3    59  GLU59       0.1567
     81  C          3.6030   16.5110    4.6790 C.2    59  GLU59       0.2260
     82  O          3.7220   15.7460    3.7220 O.2    59  GLU59      -0.2867
     83  CB         5.4720   17.9730    3.9100 C.3    59  GLU59       0.0388
     84  CG         5.8960   19.3640    3.4460 C.3    59  GLU59       0.1160
     85  CD         5.1600   19.7490    2.1830 C.2    59  GLU59       0.3649
     86  OE1        5.5240   19.2050    1.1150 O.co2  59  GLU59      -0.2457
     87  OE2        4.2100   20.5620    2.2650 O.co2  59  GLU59      -0.2457
     88  N          0.2300   15.7190    2.2630 N.3    62  PRO62      -0.2116
     89  CA         0.6740   15.5670    0.8740 C.3    62  PRO62       0.1372
     90  C          1.3930   14.2350    0.6770 C.2    62  PRO62       0.2244
     91  O          1.1860   13.5820   -0.3360 O.2    62  PRO62      -0.2868
     92  CB         1.6270   16.7420    0.6810 C.3    62  PRO62       0.0268
     93  CG         1.1790   17.7630    1.6700 C.3    62  PRO62       0.0207
     94  CD         0.6620   17.0000    2.8520 C.3    62  PRO62       0.0892
     95  N         -1.3040   11.5650    0.7480 N.3    65  GLU65      -0.1231
     96  CA        -2.1100   11.6310   -0.4740 C.3    65  GLU65       0.1699
     97  C         -1.4360   10.9260   -1.6380 C.2    65  GLU65       0.2592
     98  O         -2.0140   10.0290   -2.2580 O.2    65  GLU65      -0.2718
     99  CB        -2.3790   13.0660   -0.9050 C.3    65  GLU65       0.0402
    100  CG        -3.1800   13.9360    0.0450 C.3    65  GLU65       0.1161
    101  CD        -3.3230   15.3320   -0.5260 C.2    65  GLU65       0.3649
    102  OE1       -2.3860   15.7520   -1.2450 O.co2  65  GLU65      -0.2457
    103  OE2       -4.3570   16.0000   -0.2860 O.co2  65  GLU65      -0.2457
    104  N         -0.2090   11.3310   -1.9360 N.am   66  VAL66      -0.1980
    105  CA         0.4880   10.7230   -3.0520 C.3    66  VAL66       0.1595
    106  C          0.6830    9.2290   -2.8340 C.2    66  VAL66       0.2287
    107  O          0.6290    8.4590   -3.7880 O.2    66  VAL66      -0.2864
    108  CB         1.8150   11.4590   -3.4200 C.3    66  VAL66       0.0276
    109  CG1        2.9010   11.1880   -2.4120 C.3    66  VAL66       0.0022
    110  CG2        2.2710   11.0490   -4.8080 C.3    66  VAL66       0.0022
    111  N         -2.5740    7.2220   -3.5760 N.3    69  LEU69      -0.1231
    112  CA        -2.6440    7.1070   -5.0290 C.3    69  LEU69       0.1693
    113  C         -1.8100    5.9400   -5.5810 C.2    69  LEU69       0.2591
    114  O         -2.2240    5.2670   -6.5230 O.2    69  LEU69      -0.2718
    115  CB        -2.2110    8.4220   -5.6840 C.3    69  LEU69       0.0284
    116  CG        -3.1460    9.6250   -5.5550 C.3    69  LEU69       0.0019
    117  CD1       -2.5440   10.8350   -6.2460 C.3    69  LEU69       0.0001
    118  CD2       -4.5160    9.3330   -6.1310 C.3    69  LEU69       0.0001
    119  N         -0.6540    5.6860   -4.9790 N.am   70  ALA70      -0.1980
    120  CA         0.2520    4.6340   -5.4510 C.3    70  ALA70       0.1597
    121  C          0.2780    3.3480   -4.6240 C.2    70  ALA70       0.2287
    122  O          1.3590    2.8400   -4.3270 O.2    70  ALA70      -0.2864
    123  CB         1.6710    5.1860   -5.5500 C.3    70  ALA70       0.0319
@<TRIPOS>BOND
     1    16    17    1
     2    16    15    1
     3    19    18    1
     4    17    18    2
     5    18    20    1
     6    15    14    1
     7    35    33    1
     8     1     2    1
     9    10    11    1
    10    11    14    1
    11    11    12    1
    12    33    34    1
    13    33    30    1
    14     2     3    1
    15     2     5    1
    16     3     4    2
    17    12    13    2
    18    12    21   am
    19     5     6    1
    20    30    29    1
    21    30    31    1
    22    21    22    1
    23    32    31    2
    24    31    36   am
    25     6     7    1
    26     8     7    1
    27     8     9    1
    28    22    23    1
    29    22    25    1
    30    23    24    2
    31    36    37    1
    32    53    54    1
    33    53    52    1
    34    55    54    1
    35    25    26    1
    36    52    51    1
    37    37    40    1
    38    37    38    1
    39   114   113    2
    40    26    27    1
    41    40    41    1
    42    38    47   am
    43    38    39    2
    44   117   116    1
    45    47    48    1
    46   118   116    1
    47    28    27    1
    48    51    48    1
    49   115   116    1
    50   115   112    1
    51   113   112    1
    52   113   119   am
    53   123   120    1
    54    48    49    1
    55   120   119    1
    56   120   121    1
    57    43    41   ar
    58    43    45   ar
    59    41    42   ar
    60   112   111    1
    61   110   108    1
    62   121   122    2
    63    45    46   ar
    64    42    44   ar
    65    49    50    2
    66    49    56   am
    67   107   106    2
    68   108   105    1
    69   108   109    1
    70    56    57    1
    71    46    44   ar
    72   105   106    1
    73   105   104    1
    74    78    77    1
    75    65    63   ar
    76    65    66   ar
    77    63    61   ar
    78    98    97    2
    79    59    58    2
    80    77    75   ar
    81    77    76   ar
    82   104    97   am
    83    75    73   ar
    84    57    58    1
    85    57    60    1
    86    97    96    1
    87    58    67   am
    88    76    74   ar
    89   102   101   ar
    90    61    60    1
    91    61    62   ar
    92    66    64   ar
    93    73    72   ar
    94    99    96    1
    95    99   100    1
    96    74    72   ar
    97   101   103   ar
    98   101   100    1
    99    96    95    1
   100    67    68    1
   101    91    90    2
   102    72    71    1
   103    62    64   ar
   104    68    71    1
   105    68    69    1
   106    90    89    1
   107    92    89    1
   108    92    93    1
   109    89    88    1
   110    69    70    2
   111    86    85   ar
   112    93    94    1
   113    85    87   ar
   114    85    84    1
   115    88    94    1
   116    84    83    1
   117    82    81    2
   118    83    80    1
   119    80    81    1
   120    80    79    1
