@<TRIPOS>MOLECULE
tmp/1m49A00.pdb
 130 128 0 0 0
SMALL
GASTEIGER

@<TRIPOS>ATOM
      1  N          4.6850    3.2100  -15.3570 N.3    31  PRO31      -0.2102
      2  CA         3.6120    4.1820  -15.5700 C.3    31  PRO31       0.1504
      3  C          3.3580    4.8570  -14.2370 C.2    31  PRO31       0.2575
      4  O          3.2940    6.0810  -14.1370 O.2    31  PRO31      -0.2718
      5  CB         2.4250    3.3070  -15.9730 C.3    31  PRO31       0.0282
      6  CG         3.0490    2.0860  -16.5560 C.3    31  PRO31       0.0208
      7  CD         4.3000    1.8480  -15.7670 C.3    31  PRO31       0.0893
      8  N          3.2520    4.0270  -13.2090 N.am   32  LYS32      -0.1980
      9  CA         3.0440    4.4730  -11.8440 C.3    32  LYS32       0.1596
     10  C          4.1460    5.4280  -11.3710 C.2    32  LYS32       0.2287
     11  O          3.8680    6.5200  -10.8880 O.2    32  LYS32      -0.2864
     12  CB         3.0000    3.2510  -10.9360 C.3    32  LYS32       0.0298
     13  CG         2.7260    3.5350   -9.4730 C.3    32  LYS32       0.0038
     14  CD         2.9990    2.2740   -8.6730 C.3    32  LYS32       0.0206
     15  CE         2.0460    2.1120   -7.5110 C.3    32  LYS32       0.1093
     16  NZ         2.1320    0.7340   -6.9550 N.3    32  LYS32      -0.1314
     17  N          4.1720    9.0610  -12.9550 N.3    35  ARG35      -0.1231
     18  CA         3.1130    9.9020  -12.4160 C.3    35  ARG35       0.1694
     19  C          3.4980   10.4320  -11.0390 C.2    35  ARG35       0.2591
     20  O          3.4120   11.6310  -10.7860 O.2    35  ARG35      -0.2718
     21  CB         1.7990    9.1180  -12.2930 C.3    35  ARG35       0.0321
     22  CG         1.2380    8.5470  -13.5880 C.3    35  ARG35       0.0489
     23  CD         0.4250    9.5230  -14.4310 C.3    35  ARG35       0.2205
     24  NE        -0.7340   10.0990  -13.7410 N.pl3  35  ARG35      -0.0865
     25  CZ        -1.9670    9.5940  -13.7710 C.cat  35  ARG35       0.5346
     26  NH1       -2.2180    8.4720  -14.4330 N.pl3  35  ARG35       0.1354
     27  NH2       -2.9510   10.2060  -13.1240 N.pl3  35  ARG35       0.1354
     28  N          3.9150    9.5260  -10.1590 N.am   36  MET36      -0.1979
     29  CA         4.2640    9.8690   -8.7770 C.3    36  MET36       0.1605
     30  C          5.3810   10.9020   -8.6600 C.2    36  MET36       0.2287
     31  O          5.3700   11.7380   -7.7510 O.2    36  MET36      -0.2864
     32  CB         4.6260    8.6100   -7.9770 C.3    36  MET36       0.0413
     33  CG         5.0750    8.8990   -6.5440 C.3    36  MET36       0.0598
     34  SD         5.4400    7.4270   -5.5690 S.3    36  MET36      -0.1393
     35  CE         6.8260    6.7940   -6.4400 C.3    36  MET36       0.0692
     36  N          5.8830   13.4460  -10.3960 N.3    38  THR38      -0.1203
     37  CA         5.4150   14.7910  -10.6890 C.3    38  THR38       0.1994
     38  C          4.6470   15.3970   -9.4980 C.2    38  THR38       0.2618
     39  O          4.3290   16.5770   -9.5040 O.2    38  THR38      -0.2717
     40  CB         4.5530   14.8240  -11.9810 C.3    38  THR38       0.1784
     41  OG1        3.4380   13.9420  -11.8410 O.3    38  THR38      -0.2211
     42  CG2        5.3250   14.2220  -13.1640 C.3    38  THR38       0.0376
     43  N          4.3450   14.5800   -8.4960 N.am   39  PHE39      -0.1961
     44  CA         3.7310   15.0690   -7.2580 C.3    39  PHE39       0.1771
     45  C          4.8720   15.7090   -6.4780 C.2    39  PHE39       0.2619
     46  O          5.8010   15.0150   -6.0710 O.2    39  PHE39      -0.2715
     47  CB         3.1670   13.8940   -6.4740 C.3    39  PHE39       0.0574
     48  CG         2.3450   14.2830   -5.2650 C.ar   39  PHE39      -0.0200
     49  CD1        2.9560   14.6220   -4.0630 C.ar   39  PHE39      -0.0042
     50  CD2        0.9620   14.2650   -5.3250 C.ar   39  PHE39      -0.0042
     51  CE1        2.1950   14.9610   -2.9400 C.ar   39  PHE39      -0.0003
     52  CE2        0.1890   14.6000   -4.2110 C.ar   39  PHE39      -0.0003
     53  CZ         0.8080   14.9480   -3.0170 C.ar   39  PHE39      -0.0000
     54  N          4.7920   17.0170   -6.2600 N.am   40  LYS40      -0.1963
     55  CA         5.8650   17.7770   -5.6300 C.3    40  LYS40       0.1728
     56  C          5.7480   17.9420   -4.1150 C.2    40  LYS40       0.2616
     57  O          4.6470   18.0590   -3.5700 O.2    40  LYS40      -0.2715
     58  CB         5.9530   19.1670   -6.2650 C.3    40  LYS40       0.0311
     59  CG         6.1540   19.1680   -7.7830 C.3    40  LYS40       0.0038
     60  CD         7.2740   18.2220   -8.2310 C.3    40  LYS40       0.0206
     61  CE         8.6610   18.7150   -7.7980 C.3    40  LYS40       0.1093
     62  NZ         9.1420   19.9110   -8.5690 N.3    40  LYS40      -0.1314
     63  N          6.9030   17.9810   -3.4540 N.am   41  PHE41      -0.1960
     64  CA         6.9850   18.1840   -2.0120 C.3    41  PHE41       0.1771
     65  C          7.7390   19.4680   -1.6820 C.2    41  PHE41       0.2619
     66  O          8.6290   19.9030   -2.4360 O.2    41  PHE41      -0.2715
     67  CB         7.6800   16.9930   -1.3500 C.3    41  PHE41       0.0574
     68  CG         6.8330   15.7590   -1.2940 C.ar   41  PHE41      -0.0200
     69  CD1        6.8260   14.8560   -2.3420 C.ar   41  PHE41      -0.0042
     70  CD2        6.0230   15.5110   -0.1930 C.ar   41  PHE41      -0.0042
     71  CE1        6.0430   13.7330   -2.2930 C.ar   41  PHE41      -0.0003
     72  CE2        5.2470   14.3860   -0.1410 C.ar   41  PHE41      -0.0003
     73  CZ         5.2530   13.4960   -1.1910 C.ar   41  PHE41      -0.0000
     74  N          7.3830   20.0840   -0.5590 N.am   42  TYR42      -0.1974
     75  CA         8.0680   21.2960   -0.1250 C.3    42  TYR42       0.1639
     76  C          9.2050   20.9630    0.8360 C.2    42  TYR42       0.2290
     77  O          9.0340   20.1490    1.7460 O.2    42  TYR42      -0.2864
     78  CB         7.0820   22.2640    0.5230 C.3    42  TYR42       0.0560
     79  CG         6.1640   22.9500   -0.4620 C.ar   42  TYR42      -0.0198
     80  CD1        6.5690   24.0950   -1.1430 C.ar   42  TYR42      -0.0009
     81  CD2        4.8860   22.4620   -0.7040 C.ar   42  TYR42      -0.0009
     82  CE1        5.7220   24.7320   -2.0420 C.ar   42  TYR42       0.0417
     83  CE2        4.0330   23.0950   -1.5960 C.ar   42  TYR42       0.0417
     84  CZ         4.4560   24.2260   -2.2620 C.ar   42  TYR42       0.1957
     85  OH         3.6070   24.8470   -3.1510 O.3    42  TYR42      -0.2866
     86  N          4.1560   18.3690    5.9210 N.3    59  GLU59      -0.1245
     87  CA         4.1970   17.6580    4.6440 C.3    59  GLU59       0.1567
     88  C          3.7290   16.2100    4.7360 C.2    59  GLU59       0.2260
     89  O          3.7120   15.4930    3.7370 O.2    59  GLU59      -0.2867
     90  CB         5.6030   17.7230    4.0240 C.3    59  GLU59       0.0388
     91  CG         5.9480   19.0900    3.4590 C.3    59  GLU59       0.1160
     92  CD         5.0770   19.4590    2.2740 C.2    59  GLU59       0.3649
     93  OE1        5.3420   18.9420    1.1700 O.co2  59  GLU59      -0.2457
     94  OE2        4.1420   20.2660    2.4450 O.co2  59  GLU59      -0.2457
     95  N          0.3130   15.5090    2.3440 N.3    62  PRO62      -0.2116
     96  CA         0.6520   15.2330    0.9470 C.3    62  PRO62       0.1372
     97  C          1.3700   13.8880    0.8390 C.2    62  PRO62       0.2244
     98  O          1.1560   13.1610   -0.1270 O.2    62  PRO62      -0.2868
     99  CB         1.5790   16.3920    0.5460 C.3    62  PRO62       0.0268
    100  CG         1.7650   17.2500    1.7580 C.3    62  PRO62       0.0207
    101  CD         0.7670   16.8350    2.7900 C.3    62  PRO62       0.0892
    102  N         -1.2260   11.2520    0.9330 N.3    65  GLU65      -0.1231
    103  CA        -1.9740   11.3240   -0.3190 C.3    65  GLU65       0.1699
    104  C         -1.3160   10.5240   -1.4240 C.2    65  GLU65       0.2592
    105  O         -1.9430    9.6990   -2.0930 O.2    65  GLU65      -0.2718
    106  CB        -2.0900   12.7780   -0.7670 C.3    65  GLU65       0.0402
    107  CG        -3.3320   13.4750   -0.2550 C.3    65  GLU65       0.1161
    108  CD        -3.2260   14.9830   -0.3060 C.2    65  GLU65       0.3649
    109  OE1       -2.4180   15.5200   -1.1030 O.co2  65  GLU65      -0.2457
    110  OE2       -3.9640   15.6390    0.4580 O.co2  65  GLU65      -0.2457
    111  N         -0.0280   10.7500   -1.6040 N.am   66  VAL66      -0.1980
    112  CA         0.6680   10.0990   -2.6910 C.3    66  VAL66       0.1595
    113  C          0.8370    8.6170   -2.4010 C.2    66  VAL66       0.2287
    114  O          0.7090    7.7850   -3.3020 O.2    66  VAL66      -0.2864
    115  CB         2.0040   10.8420   -3.0340 C.3    66  VAL66       0.0276
    116  CG1        3.0850   10.5250   -2.0290 C.3    66  VAL66       0.0022
    117  CG2        2.4430   10.5340   -4.4560 C.3    66  VAL66       0.0022
    118  N         -2.3930    6.8240   -3.3230 N.3    69  LEU69      -0.1231
    119  CA        -2.4760    6.6500   -4.7650 C.3    69  LEU69       0.1693
    120  C         -1.5810    5.4880   -5.2010 C.2    69  LEU69       0.2591
    121  O         -1.9950    4.6260   -5.9800 O.2    69  LEU69      -0.2718
    122  CB        -2.0730    7.9350   -5.4830 C.3    69  LEU69       0.0284
    123  CG        -2.9870    9.1360   -5.2220 C.3    69  LEU69       0.0019
    124  CD1       -2.4390   10.4020   -5.8710 C.3    69  LEU69       0.0001
    125  CD2       -4.4090    8.8470   -5.6980 C.3    69  LEU69       0.0001
    126  N         -0.3610    5.4600   -4.6740 N.am   70  ALA70      -0.1980
    127  CA         0.6020    4.4180   -5.0110 C.3    70  ALA70       0.1597
    128  C          0.5850    3.2720   -4.0060 C.2    70  ALA70       0.2287
    129  O          1.4580    3.1840   -3.1420 O.2    70  ALA70      -0.2864
    130  CB         2.0060    5.0040   -5.1100 C.3    70  ALA70       0.0319
@<TRIPOS>BOND
     1     6     5    1
     2     6     7    1
     3     5     2    1
     4     7     1    1
     5     2     1    1
     6     2     3    1
     7    26    25    1
     8    23    24    1
     9    23    22    1
    10     3     4    2
    11     3     8   am
    12    25    24    2
    13    25    27    1
    14    22    21    1
    15     8     9    1
    16    42    40    1
    17    17    18    1
    18    18    21    1
    19    18    19    1
    20    40    41    1
    21    40    37    1
    22     9    10    1
    23     9    12    1
    24    10    11    2
    25    19    20    2
    26    19    28   am
    27    12    13    1
    28    37    36    1
    29    37    38    1
    30    28    29    1
    31    39    38    2
    32    38    43   am
    33    13    14    1
    34    29    30    1
    35    29    32    1
    36    14    15    1
    37    30    31    2
    38    62    61    1
    39    43    44    1
    40    60    61    1
    41    60    59    1
    42    32    33    1
    43    59    58    1
    44    15    16    1
    45    44    45    1
    46    44    47    1
    47    33    34    1
    48    45    54   am
    49    45    46    2
    50    47    48    1
    51    35    34    1
    52    58    55    1
    53    54    55    1
    54   121   120    2
    55   124   123    1
    56   125   123    1
    57    55    56    1
    58   122   123    1
    59   122   119    1
    60    50    48   ar
    61    50    52   ar
    62    48    49   ar
    63   120   119    1
    64   120   126   am
    65   130   127    1
    66   127   126    1
    67   127   128    1
    68   119   118    1
    69   117   115    1
    70    52    53   ar
    71    56    57    2
    72    56    63   am
    73    49    51   ar
    74   128   129    2
    75    63    64    1
    76   114   113    2
    77    85    84    1
    78   115   112    1
    79   115   116    1
    80    53    51   ar
    81   112   113    1
    82   112   111    1
    83    66    65    2
    84    69    71   ar
    85    69    68   ar
    86    71    73   ar
    87    84    82   ar
    88    84    83   ar
    89   105   104    2
    90    82    80   ar
    91    64    65    1
    92    64    67    1
    93    65    74   am
    94   111   104   am
    95    83    81   ar
    96   104   103    1
    97    67    68    1
    98    68    70   ar
    99    73    72   ar
   100    80    79   ar
   101   109   108   ar
   102   106   103    1
   103   106   107    1
   104    81    79   ar
   105    74    75    1
   106    79    78    1
   107   103   102    1
   108   108   107    1
   109   108   110   ar
   110    70    72   ar
   111    98    97    2
   112    75    78    1
   113    75    76    1
   114    99    96    1
   115    99   100    1
   116    76    77    2
   117    97    96    1
   118    96    95    1
   119    93    92   ar
   120   100   101    1
   121    92    94   ar
   122    92    91    1
   123    95   101    1
   124    91    90    1
   125    89    88    2
   126    90    87    1
   127    87    88    1
   128    87    86    1
