@<TRIPOS>MOLECULE
tmp/1m4aA00.pdb
 81 75 0 0 0
SMALL
GASTEIGER

@<TRIPOS>ATOM
      1  N         -6.5320    5.4010   -2.5650 N.3    22  ILE22      -0.1245
      2  CA        -7.5470    4.3950   -2.2970 C.3    22  ILE22       0.1561
      3  C         -8.9050    5.0310   -2.0300 C.2    22  ILE22       0.2260
      4  O         -9.8720    4.7540   -2.7370 O.2    22  ILE22      -0.2867
      5  CB        -7.1210    3.5310   -1.0980 C.3    22  ILE22       0.0252
      6  CG1       -6.1220    2.4650   -1.5450 C.3    22  ILE22       0.0019
      7  CG2       -8.3250    2.8630   -0.4520 C.3    22  ILE22       0.0019
      8  CD1       -5.8520    1.4290   -0.4940 C.3    22  ILE22       0.0001
      9  N        -11.0210    6.2310   -4.9460 N.3    25  CYS25      -0.1235
     10  CA       -11.5730    5.3250   -5.9490 C.3    25  CYS25       0.1677
     11  C        -13.0830    5.3820   -5.9900 C.2    25  CYS25       0.2270
     12  O        -13.7160    5.9460   -5.1040 O.2    25  CYS25      -0.2867
     13  CB       -11.2060    3.8810   -5.6310 C.3    25  CYS25       0.0956
     14  SG        -9.4620    3.5260   -5.6810 S.3    25  CYS25      -0.0801
     15  N        -15.3600   -0.3060   -7.1750 N.3    29  LYS29      -0.1231
     16  CA       -13.9560   -0.6850   -7.2320 C.3    29  LYS29       0.1693
     17  C        -13.3860   -0.8630   -5.8280 C.2    29  LYS29       0.2591
     18  O        -12.8530   -1.9190   -5.4900 O.2    29  LYS29      -0.2718
     19  CB       -13.1490    0.3690   -7.9880 C.3    29  LYS29       0.0285
     20  CG       -13.5030    0.5150   -9.4550 C.3    29  LYS29       0.0035
     21  CD       -12.3910    1.2450  -10.1880 C.3    29  LYS29       0.0206
     22  CE       -12.7480    1.5270  -11.6370 C.3    29  LYS29       0.1093
     23  NZ       -11.5560    2.0030  -12.4020 N.3    29  LYS29      -0.1314
     24  N        -13.4990    0.1770   -5.0120 N.am   30  LEU30      -0.1980
     25  CA       -13.0070    0.1190   -3.6480 C.3    30  LEU30       0.1596
     26  C        -13.6170   -1.0880   -2.9530 C.2    30  LEU30       0.2287
     27  O        -12.9680   -1.7530   -2.1530 O.2    30  LEU30      -0.2864
     28  CB       -13.3580    1.4040   -2.9040 C.3    30  LEU30       0.0297
     29  CG       -12.8780    1.5420   -1.4620 C.3    30  LEU30       0.0022
     30  CD1      -11.4180    1.1400   -1.3170 C.3    30  LEU30       0.0001
     31  CD2      -13.0770    2.9750   -1.0220 C.3    30  LEU30       0.0001
     32  N        -14.4300   -4.1010   -4.1720 N.3    32  ARG32      -0.1231
     33  CA       -13.6760   -5.3160   -4.4570 C.3    32  ARG32       0.1694
     34  C        -12.3640   -5.3230   -3.6940 C.2    32  ARG32       0.2591
     35  O        -12.0220   -6.3060   -3.0390 O.2    32  ARG32      -0.2718
     36  CB       -13.3860   -5.4450   -5.9480 C.3    32  ARG32       0.0321
     37  CG       -14.5770   -5.8380   -6.7790 C.3    32  ARG32       0.0489
     38  CD       -14.2180   -6.2090   -8.2020 C.3    32  ARG32       0.2205
     39  NE       -15.3780   -6.1180   -9.0770 N.pl3  32  ARG32      -0.0865
     40  CZ       -15.3730   -6.4470  -10.3590 C.cat  32  ARG32       0.5346
     41  NH1      -14.2640   -6.8970  -10.9330 N.pl3  32  ARG32       0.1354
     42  NH2      -16.4810   -6.3230  -11.0720 N.pl3  32  ARG32       0.1354
     43  N        -11.6290   -4.2210   -3.7760 N.am   33  MET33      -0.1979
     44  CA       -10.3560   -4.1210   -3.0800 C.3    33  MET33       0.1605
     45  C        -10.5240   -4.3610   -1.5880 C.2    33  MET33       0.2287
     46  O         -9.6040   -4.8330   -0.9260 O.2    33  MET33      -0.2864
     47  CB        -9.7120   -2.7520   -3.2900 C.3    33  MET33       0.0413
     48  CG        -8.3380   -2.6450   -2.6380 C.3    33  MET33       0.0598
     49  SD        -7.5800   -1.0420   -2.8580 S.3    33  MET33      -0.1393
     50  CE        -7.0850   -1.1390   -4.6230 C.3    33  MET33       0.0692
     51  N        -10.1050   -8.0740    0.0230 N.3    36  PHE36      -0.1241
     52  CA        -8.8030   -8.6670    0.3180 C.3    36  PHE36       0.1605
     53  C         -8.3730   -8.4000    1.7580 C.2    36  PHE36       0.2264
     54  O         -8.3740   -7.2580    2.2110 O.2    36  PHE36      -0.2867
     55  CB        -7.7570   -8.1620   -0.6730 C.3    36  PHE36       0.0534
     56  CG        -7.9400   -8.7040   -2.0590 C.ar   36  PHE36      -0.0203
     57  CD1       -8.9060   -8.1780   -2.9000 C.ar   36  PHE36      -0.0042
     58  CD2       -7.1640   -9.7600   -2.5110 C.ar   36  PHE36      -0.0042
     59  CE1       -9.0930   -8.6790   -4.1740 C.ar   36  PHE36      -0.0003
     60  CE2       -7.3400  -10.2660   -3.7850 C.ar   36  PHE36      -0.0003
     61  CZ        -8.3110   -9.7270   -4.6190 C.ar   36  PHE36      -0.0000
     62  N         -2.0580   -6.7620   -3.9360 N.3    63  VAL63      -0.1245
     63  CA        -3.4340   -6.2810   -3.9720 C.3    63  VAL63       0.1561
     64  C         -3.5070   -4.9720   -4.7580 C.2    63  VAL63       0.2260
     65  O         -4.4660   -4.7190   -5.4860 O.2    63  VAL63      -0.2867
     66  CB        -3.9990   -6.0690   -2.5600 C.3    63  VAL63       0.0252
     67  CG1       -5.3100   -5.2900   -2.6130 C.3    63  VAL63       0.0019
     68  CG2       -4.1920   -7.4070   -1.8670 C.3    63  VAL63       0.0019
     69  N         -3.4220   -5.3100   -8.6780 N.3    66  LEU66      -0.1231
     70  CA        -4.6690   -5.7660   -9.2850 C.3    66  LEU66       0.1693
     71  C         -5.5450   -4.5760   -9.6490 C.2    66  LEU66       0.2591
     72  O         -6.2590   -4.6030  -10.6450 O.2    66  LEU66      -0.2718
     73  CB        -5.4290   -6.6880   -8.3350 C.3    66  LEU66       0.0284
     74  CG        -4.8460   -8.0770   -8.0720 C.3    66  LEU66       0.0019
     75  CD1       -5.7390   -8.8450   -7.1010 C.3    66  LEU66       0.0001
     76  CD2       -4.6820   -8.8450   -9.3700 C.3    66  LEU66       0.0001
     77  N         -5.4760   -3.5280   -8.8370 N.am   67  ALA67      -0.1980
     78  CA        -6.2610   -2.3180   -9.0610 C.3    67  ALA67       0.1597
     79  C         -6.3150   -1.9080  -10.5310 C.2    67  ALA67       0.2287
     80  O         -5.2860   -1.6510  -11.1520 O.2    67  ALA67      -0.2864
     81  CB        -5.7260   -1.1770   -8.2150 C.3    67  ALA67       0.0319
@<TRIPOS>BOND
     1    23    22    1
     2    22    21    1
     3    80    79    2
     4    42    40    1
     5    41    40    1
     6    72    71    2
     7    79    78    1
     8    40    39    2
     9    21    20    1
    10    71    70    1
    11    71    77   am
    12    20    19    1
    13    76    74    1
    14    70    69    1
    15    70    73    1
    16    39    38    1
    17    78    77    1
    18    78    81    1
    19    73    74    1
    20    38    37    1
    21    74    75    1
    22    19    16    1
    23    16    15    1
    24    16    17    1
    25    37    36    1
    26    11    10    1
    27    11    12    2
    28    10    13    1
    29    10     9    1
    30    36    33    1
    31    17    18    2
    32    17    24   am
    33    14    13    1
    34    65    64    2
    35    24    25    1
    36    64    63    1
    37    50    49    1
    38    61    59   ar
    39    61    60   ar
    40    33    32    1
    41    33    34    1
    42    59    57   ar
    43    63    62    1
    44    63    66    1
    45    60    58   ar
    46    43    34   am
    47    43    44    1
    48    34    35    2
    49    25    26    1
    50    25    28    1
    51    47    44    1
    52    47    48    1
    53    44    45    1
    54    26    27    2
    55    28    29    1
    56    57    56   ar
    57    49    48    1
    58     4     3    2
    59    67    66    1
    60     1     2    1
    61    66    68    1
    62    58    56   ar
    63     2     3    1
    64     2     5    1
    65    56    55    1
    66    45    46    2
    67     6     5    1
    68     6     8    1
    69    29    30    1
    70    29    31    1
    71     5     7    1
    72    55    52    1
    73    51    52    1
    74    52    53    1
    75    53    54    2
