@<TRIPOS>MOLECULE
tmp/1m4bA00.pdb
 99 97 0 0 0
SMALL
GASTEIGER

@<TRIPOS>ATOM
      1  N         13.3220   -8.0240    6.5940 N.3    34  ARG34      -0.1245
      2  CA        13.8060   -7.5850    5.2930 C.3    34  ARG34       0.1563
      3  C         15.2660   -7.1510    5.3850 C.2    34  ARG34       0.2260
      4  O         16.0810   -7.5030    4.5330 O.2    34  ARG34      -0.2867
      5  CB        12.9450   -6.4510    4.7410 C.3    34  ARG34       0.0307
      6  CG        13.2680   -6.0910    3.3040 C.3    34  ARG34       0.0489
      7  CD        12.2700   -5.1490    2.6610 C.3    34  ARG34       0.2205
      8  NE        12.6810   -4.7710    1.3140 N.pl3  34  ARG34      -0.0865
      9  CZ        12.0650   -3.8610    0.5760 C.cat  34  ARG34       0.5346
     10  NH1       10.9990   -3.2290    1.0510 N.pl3  34  ARG34       0.1354
     11  NH2       12.5110   -3.5800   -0.6410 N.pl3  34  ARG34       0.1354
     12  N         17.9720   -9.7170    4.9410 N.3    37  THR37      -0.1203
     13  CA        18.1910  -10.2990    3.6180 C.3    37  THR37       0.1994
     14  C         19.3210   -9.5930    2.8810 C.2    37  THR37       0.2618
     15  O         19.7980  -10.0750    1.8540 O.2    37  THR37      -0.2717
     16  CB        16.9120  -10.2440    2.7640 C.3    37  THR37       0.1784
     17  OG1       16.5220   -8.8780    2.5630 O.3    37  THR37      -0.2211
     18  CG2       15.7320  -10.8570    3.5130 C.3    37  THR37       0.0376
     19  N         19.7440   -8.4430    3.4000 N.am   38  PHE38      -0.1961
     20  CA        20.8130   -7.6820    2.7640 C.3    38  PHE38       0.1771
     21  C         22.1690   -8.3580    2.9440 C.2    38  PHE38       0.2620
     22  O         22.4200   -8.9960    3.9630 O.2    38  PHE38      -0.2715
     23  CB        20.8450   -6.2380    3.2760 C.3    38  PHE38       0.0574
     24  CG        19.8730   -5.3230    2.5780 C.ar   38  PHE38      -0.0200
     25  CD1       18.6110   -5.7700    2.2190 C.ar   38  PHE38      -0.0042
     26  CD2       20.2240   -4.0110    2.2790 C.ar   38  PHE38      -0.0042
     27  CE1       17.7180   -4.9220    1.5780 C.ar   38  PHE38      -0.0003
     28  CE2       19.3370   -3.1680    1.6370 C.ar   38  PHE38      -0.0003
     29  CZ        18.0840   -3.6270    1.2860 C.ar   38  PHE38      -0.0000
     30  N         23.0300   -8.2230    1.9370 N.am   39  CYS39      -0.1954
     31  CA        24.3650   -8.8160    1.9630 C.3    39  CYS39       0.1843
     32  C         25.4410   -7.7480    2.1590 C.2    39  CYS39       0.2625
     33  O         25.4870   -6.7580    1.4280 O.2    39  CYS39      -0.2714
     34  CB        24.6330   -9.5860    0.6660 C.3    39  CYS39       0.0997
     35  SG        23.4750  -10.9370    0.3530 S.3    39  CYS39      -0.0797
     36  N         26.3030   -7.9590    3.1500 N.am   40  PHE40      -0.1960
     37  CA        27.3990   -7.0380    3.4320 C.3    40  PHE40       0.1771
     38  C         28.7460   -7.7280    3.2630 C.2    40  PHE40       0.2619
     39  O         28.8670   -8.9350    3.4700 O.2    40  PHE40      -0.2715
     40  CB        27.2820   -6.4700    4.8530 C.3    40  PHE40       0.0574
     41  CG        26.2090   -5.4330    4.9980 C.ar   40  PHE40      -0.0200
     42  CD1       24.8890   -5.8040    5.1990 C.ar   40  PHE40      -0.0042
     43  CD2       26.5170   -4.0870    4.9200 C.ar   40  PHE40      -0.0042
     44  CE1       23.8960   -4.8460    5.3200 C.ar   40  PHE40      -0.0003
     45  CE2       25.5300   -3.1270    5.0430 C.ar   40  PHE40      -0.0003
     46  CZ        24.2190   -3.5080    5.2410 C.ar   40  PHE40      -0.0000
     47  N         29.7590   -6.9580    2.8850 N.am   41  TYR41      -0.1974
     48  CA        31.1000   -7.5040    2.7310 C.3    41  TYR41       0.1639
     49  C         31.9270   -7.2640    3.9910 C.2    41  TYR41       0.2290
     50  O         31.8350   -6.2090    4.6190 O.2    41  TYR41      -0.2864
     51  CB        31.8030   -6.8930    1.5190 C.3    41  TYR41       0.0560
     52  CG        31.2880   -7.3820    0.1840 C.ar   41  TYR41      -0.0198
     53  CD1       31.2890   -8.7360   -0.1340 C.ar   41  TYR41      -0.0009
     54  CD2       30.8110   -6.4870   -0.7640 C.ar   41  TYR41      -0.0009
     55  CE1       30.8230   -9.1820   -1.3620 C.ar   41  TYR41       0.0417
     56  CE2       30.3450   -6.9220   -1.9900 C.ar   41  TYR41       0.0417
     57  CZ        30.3530   -8.2680   -2.2840 C.ar   41  TYR41       0.1957
     58  OH        29.8870   -8.6930   -3.5060 O.3    41  TYR41      -0.2866
     59  N         33.8540    1.6270    2.7130 N.3    57  GLU57      -0.1231
     60  CA        33.3120    1.1270    1.4530 C.3    57  GLU57       0.1699
     61  C         31.8880    0.5780    1.5670 C.2    57  GLU57       0.2592
     62  O         31.2200    0.3790    0.5530 O.2    57  GLU57      -0.2718
     63  CB        34.2340    0.0540    0.8550 C.3    57  GLU57       0.0402
     64  CG        35.5330    0.5890    0.2690 C.3    57  GLU57       0.1161
     65  CD        36.3880   -0.4970   -0.3650 C.2    57  GLU57       0.3649
     66  OE1       35.9250   -1.6530   -0.4540 O.co2  57  GLU57      -0.2457
     67  OE2       37.5260   -0.1920   -0.7790 O.co2  57  GLU57      -0.2457
     68  N         31.4180    0.3390    2.7890 N.am   58  GLU58      -0.1979
     69  CA        30.1070   -0.2800    2.9730 C.3    58  GLU58       0.1602
     70  C         29.0470    0.6530    3.5350 C.2    58  GLU58       0.2287
     71  O         27.9200    0.2280    3.8200 O.2    58  GLU58      -0.2864
     72  CB        30.2220   -1.5180    3.8690 C.3    58  GLU58       0.0415
     73  CG        31.0900   -2.6300    3.3040 C.3    58  GLU58       0.1163
     74  CD        30.4140   -3.3830    2.1750 C.2    58  GLU58       0.3649
     75  OE1       29.3710   -4.0220    2.4270 O.co2  58  GLU58      -0.2457
     76  OE2       30.9250   -3.3370    1.0370 O.co2  58  GLU58      -0.2457
     77  N         25.5150    0.5450    1.4100 N.3    61  PRO61      -0.2116
     78  CA        24.5710   -0.5260    1.7310 C.3    61  PRO61       0.1372
     79  C         24.0490   -0.3690    3.1550 C.2    61  PRO61       0.2244
     80  O         22.9070   -0.7330    3.4490 O.2    61  PRO61      -0.2868
     81  CB        25.4290   -1.7860    1.6290 C.3    61  PRO61       0.0268
     82  CG        26.5470   -1.4130    0.7280 C.3    61  PRO61       0.0207
     83  CD        26.8350    0.0210    1.0180 C.3    61  PRO61       0.0892
     84  N         21.3080    2.1930    3.0580 N.3    64  GLU64      -0.1245
     85  CA        20.1580    1.5910    2.3950 C.3    64  GLU64       0.1567
     86  C         19.4060    0.6030    3.2730 C.2    64  GLU64       0.2260
     87  O         18.1840    0.5530    3.2480 O.2    64  GLU64      -0.2867
     88  CB        20.5960    0.9080    1.0990 C.3    64  GLU64       0.0388
     89  CG        21.4260    1.8040    0.1980 C.3    64  GLU64       0.1160
     90  CD        21.6630    1.2020   -1.1690 C.2    64  GLU64       0.3649
     91  OE1       21.9370   -0.0180   -1.2480 O.co2  64  GLU64      -0.2457
     92  OE2       21.5730    1.9540   -2.1640 O.co2  64  GLU64      -0.2457
     93  N         29.5780  -13.4970    2.7400 N.3    94  THR94      -0.1218
     94  CA        28.9870  -12.2060    3.0710 C.3    94  THR94       0.1862
     95  C         28.3330  -12.2850    4.4480 C.2    94  THR94       0.2287
     96  O         28.2000  -13.3690    5.0200 O.2    94  THR94      -0.2866
     97  CB        27.9640  -11.7610    2.0050 C.3    94  THR94       0.1770
     98  OG1       26.9870  -12.7890    1.8060 O.3    94  THR94      -0.2211
     99  CG2       28.6290  -11.6300    0.6420 C.3    94  THR94       0.0375
@<TRIPOS>BOND
     1    58    57    1
     2    57    56   ar
     3    57    55   ar
     4    92    90   ar
     5    56    54   ar
     6    55    53   ar
     7    91    90   ar
     8    90    89    1
     9    67    65   ar
    10    54    52   ar
    11    11     9    1
    12    66    65   ar
    13    65    64    1
    14    53    52   ar
    15    52    51    1
    16    89    88    1
    17    64    63    1
    18    35    34    1
    19    62    61    2
    20     9    10    1
    21     9     8    2
    22    99    97    1
    23    34    31    1
    24    82    83    1
    25    82    81    1
    26    63    60    1
    27    83    77    1
    28    76    74   ar
    29    88    85    1
    30    29    27   ar
    31    29    28   ar
    32     8     7    1
    33    77    78    1
    34    33    32    2
    35    60    61    1
    36    60    59    1
    37    51    48    1
    38    61    68   am
    39    27    25   ar
    40    81    78    1
    41    28    26   ar
    42    78    79    1
    43    98    97    1
    44    15    14    2
    45    30    31    1
    46    30    21   am
    47    31    32    1
    48    97    94    1
    49    32    36   am
    50    74    75   ar
    51    74    73    1
    52    25    24   ar
    53    26    24   ar
    54    85    84    1
    55    85    86    1
    56    17    16    1
    57    24    23    1
    58     7     6    1
    59    48    47    1
    60    48    49    1
    61    93    94    1
    62    20    21    1
    63    20    23    1
    64    20    19    1
    65    16    18    1
    66    16    13    1
    67    68    69    1
    68    14    19   am
    69    14    13    1
    70    47    38   am
    71    21    22    2
    72    69    70    1
    73    69    72    1
    74    94    95    1
    75    36    37    1
    76    79    80    2
    77    87    86    2
    78    38    37    1
    79    38    39    2
    80     6     5    1
    81    73    72    1
    82    37    40    1
    83    70    71    2
    84    13    12    1
    85    49    50    2
    86    95    96    2
    87     4     3    2
    88     5     2    1
    89    40    41    1
    90    43    41   ar
    91    43    45   ar
    92    41    42   ar
    93    45    46   ar
    94    42    44   ar
    95    46    44   ar
    96     2     3    1
    97     2     1    1
