@<TRIPOS>MOLECULE
tmp/1m4dA00.pdb
 162 156 0 0 0
SMALL
GASTEIGER

@<TRIPOS>ATOM
      1  N         16.7330   38.1520    7.9490 N.3    32  PHE32      -0.1241
      2  CA        17.3690   36.8250    7.8530 C.3    32  PHE32       0.1605
      3  C         17.5110   36.2500    6.4620 C.2    32  PHE32       0.2264
      4  O         17.8640   35.0790    6.3340 O.2    32  PHE32      -0.2867
      5  CB        16.6000   35.7730    8.6930 C.3    32  PHE32       0.0534
      6  CG        16.9590   35.7780   10.1360 C.ar   32  PHE32      -0.0203
      7  CD1       16.3430   36.6870   11.0190 C.ar   32  PHE32      -0.0042
      8  CD2       17.9890   34.9500   10.6210 C.ar   32  PHE32      -0.0042
      9  CE1       16.7590   36.7780   12.3590 C.ar   32  PHE32      -0.0003
     10  CE2       18.4150   35.0300   11.9750 C.ar   32  PHE32      -0.0003
     11  CZ        17.8010   35.9480   12.8440 C.ar   32  PHE32      -0.0000
     12  N         15.8440   32.7120    5.7470 N.3    35  ASP35      -0.1225
     13  CA        16.1420   31.5990    6.6170 C.3    35  ASP35       0.1805
     14  C         15.3430   31.7740    7.9560 C.2    35  ASP35       0.2597
     15  O         15.8210   31.4050    9.0260 O.2    35  ASP35      -0.2718
     16  CB        17.6590   31.6060    6.8190 C.3    35  ASP35       0.1424
     17  CG        18.1420   30.5960    7.8220 C.2    35  ASP35       0.3668
     18  OD1       17.9720   29.3750    7.5760 O.co2  35  ASP35      -0.2456
     19  OD2       18.7130   31.0550    8.8490 O.co2  35  ASP35      -0.2456
     20  N         14.1340   32.3370    7.8810 N.am   36  PHE36      -0.1976
     21  CA        13.3190   32.5330    9.0860 C.3    36  PHE36       0.1639
     22  C         11.9320   32.0040    8.8220 C.2    36  PHE36       0.2290
     23  O         11.1340   32.6390    8.1450 O.2    36  PHE36      -0.2864
     24  CB        13.3060   34.0090    9.4280 C.3    36  PHE36       0.0560
     25  CG        12.8080   34.2980   10.8030 C.ar   36  PHE36      -0.0200
     26  CD1       13.6700   34.2400   11.9130 C.ar   36  PHE36      -0.0042
     27  CD2       11.4630   34.6520   10.9980 C.ar   36  PHE36      -0.0042
     28  CE1       13.1650   34.5490   13.2160 C.ar   36  PHE36      -0.0003
     29  CE2       10.9780   34.9520   12.2480 C.ar   36  PHE36      -0.0003
     30  CZ        11.8120   34.9050   13.3560 C.ar   36  PHE36      -0.0000
     31  N         10.0790   29.5190   13.3450 N.3    40  ASP40      -0.1239
     32  CA        11.0090   30.4420   14.0020 C.3    40  ASP40       0.1674
     33  C         10.2290   31.6680   14.4760 C.2    40  ASP40       0.2266
     34  O         10.5860   32.2240   15.4790 O.2    40  ASP40      -0.2867
     35  CB        12.0660   30.9610   13.0470 C.3    40  ASP40       0.1410
     36  CG        13.0750   29.8760   12.6330 C.2    40  ASP40       0.3668
     37  OD1       13.5300   29.1330   13.5190 O.co2  40  ASP40      -0.2456
     38  OD2       13.3870   29.8580   11.4100 O.co2  40  ASP40      -0.2456
     39  N          8.6440   30.8430   17.7480 N.3    43  HIS43      -0.1241
     40  CA         9.6180   30.8180   18.8280 C.3    43  HIS43       0.1621
     41  C          9.9370   32.1860   19.3810 C.2    43  HIS43       0.2264
     42  O         10.5300   32.2760   20.4650 O.2    43  HIS43      -0.2867
     43  CB        10.9390   30.1810   18.3270 C.3    43  HIS43       0.0745
     44  CG        10.7700   28.7360   17.9740 C.ar   43  HIS43       0.0817
     45  ND1       11.7440   28.0100   17.3250 N.ar   43  HIS43      -0.2268
     46  CD2        9.7320   27.9000   18.1580 C.ar   43  HIS43       0.1154
     47  CE1       11.3030   26.7800   17.1140 C.ar   43  HIS43       0.1986
     48  NE2       10.0920   26.6800   17.6040 N.ar   43  HIS43      -0.2212
     49  N         17.1340   33.7900   23.8190 N.3    81  VAL81      -0.1231
     50  CA        17.0820   34.9480   22.8680 C.3    81  VAL81       0.1692
     51  C         16.7410   34.5470   21.4440 C.2    81  VAL81       0.2592
     52  O         17.4860   33.7880   20.7800 O.2    81  VAL81      -0.2718
     53  CB        18.3900   35.6760   22.8630 C.3    81  VAL81       0.0266
     54  CG1       18.1840   37.0860   22.1290 C.3    81  VAL81       0.0020
     55  CG2       18.8650   35.9800   24.3140 C.3    81  VAL81       0.0020
     56  N         15.6210   35.0740   20.9270 N.am   82  GLU82      -0.1966
     57  CA        15.1900   34.7120   19.5720 C.3    82  GLU82       0.1733
     58  C         15.0120   35.9440   18.6790 C.2    82  GLU82       0.2617
     59  O         14.7770   37.0670   19.2010 O.2    82  GLU82      -0.2715
     60  CB        13.8140   34.0730   19.6410 C.3    82  GLU82       0.0429
     61  CG        13.8060   32.6780   20.3460 C.3    82  GLU82       0.1163
     62  CD        14.3660   31.5520   19.4650 C.2    82  GLU82       0.3649
     63  OE1       14.6540   31.7810   18.2780 O.co2  82  GLU82      -0.2457
     64  OE2       14.5380   30.4460   19.9640 O.co2  82  GLU82      -0.2457
     65  N         15.1060   35.7350   17.3670 N.am   83  GLY83      -0.1940
     66  CA        14.8070   36.8000   16.4140 C.3    83  GLY83       0.2014
     67  C         15.6710   38.0560   16.5230 C.2    83  GLY83       0.2638
     68  O         15.2040   39.1720   16.2700 O.2    83  GLY83      -0.2714
     69  N         16.9550   37.9070   16.7960 N.am   84  VAL84      -0.1977
     70  CA        17.7960   39.0610   16.8800 C.3    84  VAL84       0.1596
     71  C         18.0620   39.6240   15.4860 C.2    84  VAL84       0.2287
     72  O         18.6600   38.9490   14.6590 O.2    84  VAL84      -0.2864
     73  CB        19.1560   38.7060   17.5640 C.3    84  VAL84       0.0276
     74  CG1       20.0790   39.9340   17.5730 C.3    84  VAL84       0.0022
     75  CG2       18.8870   38.3050   19.0220 C.3    84  VAL84       0.0022
     76  N         21.2670   31.3680   23.8540 N.3   116  LEU116     -0.1231
     77  CA        20.9170   31.6180   22.4800 C.3   116  LEU116      0.1693
     78  C         21.8030   30.7460   21.6150 C.2   116  LEU116      0.2593
     79  O         22.8070   30.1660   22.0730 O.2   116  LEU116     -0.2718
     80  CB        21.1560   33.0760   22.1380 C.3   116  LEU116      0.0284
     81  CG        22.5540   33.6460   22.3520 C.3   116  LEU116      0.0019
     82  CD1       23.5010   33.3000   21.1030 C.3   116  LEU116      0.0001
     83  CD2       22.3870   35.1670   22.6240 C.3   116  LEU116      0.0001
     84  N         21.3790   30.5950   20.3680 N.am  117  SER117     -0.1938
     85  CA        22.1730   29.7700   19.4350 C.3   117  SER117      0.2055
     86  C         22.5800   30.8040   18.3750 C.2   117  SER117      0.2644
     87  O         21.7450   31.3110   17.6490 O.2   117  SER117     -0.2714
     88  CB        21.2860   28.6600   18.8660 C.3   117  SER117      0.2130
     89  OG        21.9420   27.9350   17.8460 O.3   117  SER117     -0.2179
     90  N         23.8500   31.1090   18.3380 N.am  118  SER118     -0.1935
     91  CA        24.4280   32.1220   17.4680 C.3   118  SER118      0.2055
     92  C         24.8890   31.7020   16.0590 C.2   118  SER118      0.2644
     93  O         25.3130   30.5620   15.8260 O.2   118  SER118     -0.2714
     94  CB        25.5910   32.7240   18.2400 C.3   118  SER118      0.2130
     95  OG        26.3630   33.6520   17.5180 O.3   118  SER118     -0.2179
     96  N         24.7750   32.6610   15.1340 N.am  119  SER119     -0.1935
     97  CA        25.2040   32.5380   13.7390 C.3   119  SER119      0.2055
     98  C         26.7060   32.6180   13.8110 C.2   119  SER119      0.2642
     99  O         27.2640   33.1350   14.7940 O.2   119  SER119     -0.2714
    100  CB        24.6920   33.7200   12.9140 C.3   119  SER119      0.2130
    101  OG        23.2870   33.9430   13.1340 O.3   119  SER119     -0.2179
    102  N         27.3980   32.1160   12.7930 N.am  120  ALA120     -0.1977
    103  CA        28.8370   32.1820   12.8630 C.3   120  ALA120      0.1597
    104  C         29.2760   33.6450   12.8770 C.2   120  ALA120      0.2287
    105  O         30.2990   34.0070   13.5000 O.2   120  ALA120     -0.2864
    106  CB        29.4660   31.4270   11.6610 C.3   120  ALA120      0.0319
    107  N         24.0180   19.1340   15.2580 N.3   151  ASP151     -0.1225
    108  CA        24.0610   20.2360   14.3330 C.3   151  ASP151      0.1805
    109  C         24.1190   21.5500   15.1270 C.2   151  ASP151      0.2597
    110  O         24.5360   22.5750   14.6050 O.2   151  ASP151     -0.2718
    111  CB        22.8200   20.2160   13.4070 C.3   151  ASP151      0.1424
    112  CG        22.8610   19.0710   12.3680 C.2   151  ASP151      0.3668
    113  OD1       23.9560   18.4810   12.1670 O.co2 151  ASP151     -0.2456
    114  OD2       21.7840   18.7580   11.7780 O.co2 151  ASP151     -0.2456
    115  N         23.7060   21.5120   16.3830 N.am  152  ASP152     -0.1974
    116  CA        23.7010   22.7240   17.1980 C.3   152  ASP152      0.1709
    117  C         24.9430   22.8490   18.0820 C.2   152  ASP152      0.2293
    118  O         25.1420   23.8690   18.7380 O.2   152  ASP152     -0.2864
    119  CB        22.3980   22.7940   18.0130 C.3   152  ASP152      0.1436
    120  CG        21.1600   22.8060   17.1010 C.2   152  ASP152      0.3671
    121  OD1       21.0980   23.6920   16.2300 O.co2 152  ASP152     -0.2456
    122  OD2       20.2740   21.9450   17.2690 O.co2 152  ASP152     -0.2456
    123  N         27.3590   26.2210   18.6930 N.3   155  THR155     -0.1218
    124  CA        26.6240   27.4380   18.3200 C.3   155  THR155      0.1862
    125  C         25.9910   28.0880   19.5640 C.2   155  THR155      0.2287
    126  O         25.5920   29.2370   19.5200 O.2   155  THR155     -0.2866
    127  CB        25.4250   27.1740   17.3830 C.3   155  THR155      0.1770
    128  OG1       24.3970   26.4570   18.0940 O.3   155  THR155     -0.2211
    129  CG2       25.8600   26.2770   16.1900 C.3   155  THR155      0.0375
    130  N         10.3090   21.6400   21.5510 N.3   176  ARG176     -0.1245
    131  CA         9.3840   22.5120   20.7930 C.3   176  ARG176      0.1563
    132  C          9.4950   22.1090   19.3350 C.2   176  ARG176      0.2260
    133  O         10.4070   21.3720   18.9400 O.2   176  ARG176     -0.2867
    134  CB         9.7110   24.0010   20.9730 C.3   176  ARG176      0.0307
    135  CG        11.0500   24.3580   20.4110 C.3   176  ARG176      0.0489
    136  CD        11.3400   25.8500   20.6770 C.3   176  ARG176      0.2205
    137  NE        12.6110   26.2270   20.0240 N.pl3 176  ARG176     -0.0865
    138  CZ        13.2180   27.4150   20.1800 C.cat 176  ARG176      0.5346
    139  NH1       12.6910   28.3580   20.9700 N.pl3 176  ARG176      0.1354
    140  NH2       14.3470   27.6580   19.5650 N.pl3 176  ARG176      0.1354
    141  N         13.3530   24.1490   15.0010 N.3   179  ASP179     -0.1239
    142  CA        14.6950   24.1320   15.5640 C.3   179  ASP179      0.1674
    143  C         14.5080   24.2110   17.0720 C.2   179  ASP179      0.2266
    144  O         13.8670   25.1680   17.5990 O.2   179  ASP179     -0.2867
    145  CB        15.4860   25.3200   15.0520 C.3   179  ASP179      0.1410
    146  CG        15.8990   25.1200   13.5670 C.2   179  ASP179      0.3668
    147  OD1       16.0830   23.9600   13.1920 O.co2 179  ASP179     -0.2456
    148  OD2       16.0400   26.0510   12.7950 O.co2 179  ASP179     -0.2456
    149  N         16.9920   24.4770   19.2170 N.3   181  TRP181     -0.1241
    150  CA        17.9150   25.5260   19.7000 C.3   181  TRP181      0.1605
    151  C         17.6950   26.7500   18.7570 C.2   181  TRP181      0.2264
    152  O         17.1570   26.5330   17.6460 O.2   181  TRP181     -0.2867
    153  CB        19.3830   25.0420   19.6180 C.3   181  TRP181      0.0550
    154  CG        19.7090   23.9400   20.6240 C.ar  181  TRP181      0.0003
    155  CD1       19.8290   22.5970   20.3350 C.ar  181  TRP181      0.0946
    156  CD2       20.0060   24.0820   22.0360 C.ar  181  TRP181      0.0152
    157  NE1       20.1890   21.9070   21.4720 N.ar  181  TRP181     -0.2442
    158  CE2       20.3090   22.7920   22.5240 C.ar  181  TRP181      0.0810
    159  CE3       20.0620   25.1890   22.9260 C.ar  181  TRP181      0.0012
    160  CZ2       20.6550   22.5550   23.8450 C.ar  181  TRP181      0.0191
    161  CZ3       20.4080   24.9640   24.2700 C.ar  181  TRP181      0.0001
    162  CH2       20.7000   23.6420   24.7180 C.ar  181  TRP181      0.0015
@<TRIPOS>BOND
     1    12    13    1
     2     4     3    2
     3     3     2    1
     4    13    16    1
     5    13    14    1
     6    16    17    1
     7    18    17   ar
     8    17    19   ar
     9     2     1    1
    10     2     5    1
    11    20    14   am
    12    20    21    1
    13    14    15    2
    14    23    22    2
    15     5     6    1
    16    22    21    1
    17    21    24    1
    18    24    25    1
    19     6     8   ar
    20     6     7   ar
    21     8    10   ar
    22    25    27   ar
    23    25    26   ar
    24    27    29   ar
    25     7     9   ar
    26    38    36   ar
    27   106   103    1
    28   114   112   ar
    29    26    28   ar
    30    10    11   ar
    31   113   112   ar
    32    29    30   ar
    33     9    11   ar
    34   112   111    1
    35    36    35    1
    36    36    37   ar
    37   102   103    1
    38   102    98   am
    39   148   146   ar
    40   103   104    1
    41   104   105    2
    42   100   101    1
    43   100    97    1
    44    35    32    1
    45   147   146   ar
    46    28    30   ar
    47    31    32    1
    48   111   108    1
    49   146   145    1
    50    97    98    1
    51    97    96    1
    52    98    99    2
    53    32    33    1
    54   108   109    1
    55   108   107    1
    56    33    34    2
    57   110   109    2
    58    72    71    2
    59   141   142    1
    60   145   142    1
    61   109   115   am
    62    96    92   am
    63    71    70    1
    64   142   143    1
    65    93    92    2
    66    92    91    1
    67   129   127    1
    68   121   120   ar
    69    68    67    2
    70   115   116    1
    71    66    67    1
    72    66    65    1
    73    67    69   am
    74    69    70    1
    75    70    73    1
    76   143   144    2
    77   120   122   ar
    78   120   119    1
    79    47    45   ar
    80    47    48   ar
    81   116   119    1
    82   116   117    1
    83    45    44   ar
    84    65    58   am
    85   127   128    1
    86   127   124    1
    87    91    94    1
    88    91    90    1
    89    95    94    1
    90    73    74    1
    91    73    75    1
    92    48    46   ar
    93   152   151    2
    94    87    86    2
    95    39    40    1
    96    89    88    1
    97    44    46   ar
    98    44    43    1
    99   117   118    2
   100    63    62   ar
   101   124   123    1
   102   124   125    1
   103    43    40    1
   104    90    86   am
   105    86    85    1
   106    58    59    2
   107    58    57    1
   108   151   150    1
   109    40    41    1
   110    88    85    1
   111   133   132    2
   112   149   150    1
   113   132   131    1
   114    41    42    2
   115    85    84    1
   116    62    64   ar
   117    62    61    1
   118   126   125    2
   119   140   138    1
   120    57    60    1
   121    57    56    1
   122   153   150    1
   123   153   154    1
   124    60    61    1
   125   137   138    2
   126   137   136    1
   127   138   139    1
   128   155   154   ar
   129   155   157   ar
   130    84    78   am
   131   135   136    1
   132   135   134    1
   133   154   156   ar
   134    52    51    2
   135   131   134    1
   136   131   130    1
   137    56    51   am
   138    82    81    1
   139    51    50    1
   140   157   158   ar
   141    78    79    2
   142    78    77    1
   143   156   158   ar
   144   156   159   ar
   145    54    53    1
   146    80    81    1
   147    80    77    1
   148    81    83    1
   149    77    76    1
   150   158   160   ar
   151    53    50    1
   152    53    55    1
   153    50    49    1
   154   159   161   ar
   155   160   162   ar
   156   161   162   ar
