@<TRIPOS>MOLECULE
tmp/1m4gA01.pdb
 174 167 0 0 0
SMALL
GASTEIGER

@<TRIPOS>ATOM
      1  N         17.0460   38.1540    8.2450 N.3    32  PHE32      -0.1241
      2  CA        17.6450   36.8100    8.2030 C.3    32  PHE32       0.1605
      3  C         17.7110   36.3190    6.7720 C.2    32  PHE32       0.2264
      4  O         17.8810   35.1110    6.5070 O.2    32  PHE32      -0.2867
      5  CB        16.8510   35.8020    9.0810 C.3    32  PHE32       0.0534
      6  CG        17.1820   35.8840   10.5670 C.ar   32  PHE32      -0.0203
      7  CD1       18.2910   35.1740   11.0840 C.ar   32  PHE32      -0.0042
      8  CD2       16.4800   36.7500   11.4200 C.ar   32  PHE32      -0.0042
      9  CE1       18.7080   35.3220   12.3990 C.ar   32  PHE32      -0.0003
     10  CE2       16.8990   36.9190   12.7680 C.ar   32  PHE32      -0.0003
     11  CZ        18.0290   36.1910   13.2550 C.ar   32  PHE32      -0.0000
     12  N         15.5440   33.3990    5.7220 N.3    35  ASP35      -0.1225
     13  CA        15.6770   32.1200    6.4020 C.3    35  ASP35       0.1805
     14  C         15.0900   32.2960    7.8270 C.2    35  ASP35       0.2597
     15  O         15.7930   32.3310    8.8300 O.2    35  ASP35      -0.2718
     16  CB        17.1190   31.7330    6.5500 C.3    35  ASP35       0.1424
     17  CG        17.2650   30.4420    7.3060 C.2    35  ASP35       0.3668
     18  OD1       16.2120   29.8420    7.5930 O.co2  35  ASP35      -0.2456
     19  OD2       18.3930   30.0380    7.6220 O.co2  35  ASP35      -0.2456
     20  N         13.7970   32.4440    7.8850 N.am   36  PHE36      -0.1976
     21  CA        13.1570   32.6860    9.1550 C.3    36  PHE36       0.1639
     22  C         11.7920   32.0860    8.9480 C.2    36  PHE36       0.2290
     23  O         10.9190   32.7010    8.2930 O.2    36  PHE36      -0.2864
     24  CB        13.1220   34.1950    9.3990 C.3    36  PHE36       0.0560
     25  CG        12.6640   34.5580   10.7890 C.ar   36  PHE36      -0.0200
     26  CD1       13.5690   34.5210   11.8680 C.ar   36  PHE36      -0.0042
     27  CD2       11.3290   34.8340   11.0500 C.ar   36  PHE36      -0.0042
     28  CE1       13.1170   34.7620   13.1940 C.ar   36  PHE36      -0.0003
     29  CE2       10.8910   35.0740   12.3770 C.ar   36  PHE36      -0.0003
     30  CZ        11.7830   35.0360   13.4280 C.ar   36  PHE36      -0.0000
     31  N         10.2030   29.6210   13.5260 N.3    40  ASP40      -0.1239
     32  CA        11.1350   30.6450   14.1090 C.3    40  ASP40       0.1674
     33  C         10.3380   31.8470   14.5940 C.2    40  ASP40       0.2266
     34  O         10.6420   32.4250   15.6270 O.2    40  ASP40      -0.2867
     35  CB        12.1870   31.1840   13.1050 C.3    40  ASP40       0.1410
     36  CG        13.2170   30.1390   12.7220 C.2    40  ASP40       0.3668
     37  OD1       13.6380   29.3520   13.6120 O.co2  40  ASP40      -0.2456
     38  OD2       13.6090   30.1140   11.5190 O.co2  40  ASP40      -0.2456
     39  N         17.1840   33.9470   23.9630 N.3    81  VAL81      -0.1231
     40  CA        17.1160   35.1420   23.0580 C.3    81  VAL81       0.1692
     41  C         16.8420   34.7510   21.6380 C.2    81  VAL81       0.2592
     42  O         17.6470   34.0380   21.0060 O.2    81  VAL81      -0.2718
     43  CB        18.4300   35.9280   23.1350 C.3    81  VAL81       0.0266
     44  CG1       18.2420   37.3270   22.5010 C.3    81  VAL81       0.0020
     45  CG2       18.8740   36.1260   24.6320 C.3    81  VAL81       0.0020
     46  N         15.7380   35.2610   21.1060 N.am   82  GLU82      -0.1966
     47  CA        15.3150   34.8880   19.7710 C.3    82  GLU82       0.1733
     48  C         15.1050   36.0750   18.8630 C.2    82  GLU82       0.2617
     49  O         14.7000   37.1530   19.3010 O.2    82  GLU82      -0.2715
     50  CB        13.9570   34.1530   19.8450 C.3    82  GLU82       0.0429
     51  CG        14.0140   32.7500   20.5020 C.3    82  GLU82       0.1163
     52  CD        14.4890   31.6550   19.5040 C.2    82  GLU82       0.3649
     53  OE1       14.7460   31.9430   18.2800 O.co2  82  GLU82      -0.2457
     54  OE2       14.6520   30.5340   19.9540 O.co2  82  GLU82      -0.2457
     55  N         15.3870   35.8430   17.5900 N.am   83  GLY83      -0.1940
     56  CA        15.1100   36.8850   16.6250 C.3    83  GLY83       0.2014
     57  C         15.9380   38.1600   16.7210 C.2    83  GLY83       0.2638
     58  O         15.4320   39.2320   16.3620 O.2    83  GLY83      -0.2714
     59  N         17.2000   38.0780   17.1530 N.am   84  VAL84      -0.1977
     60  CA        18.0480   39.2600   17.2350 C.3    84  VAL84       0.1596
     61  C         18.2830   39.7490   15.8110 C.2    84  VAL84       0.2287
     62  O         18.8540   39.0170   14.9900 O.2    84  VAL84      -0.2864
     63  CB        19.3760   38.9320   17.9350 C.3    84  VAL84       0.0276
     64  CG1       20.3350   40.1440   17.8870 C.3    84  VAL84       0.0022
     65  CG2       19.0490   38.6120   19.4180 C.3    84  VAL84       0.0022
     66  N         21.2510   31.3890   24.0440 N.3   116  LEU116     -0.1231
     67  CA        20.8400   31.6620   22.6860 C.3   116  LEU116      0.1693
     68  C         21.6790   30.7610   21.7850 C.2   116  LEU116      0.2593
     69  O         22.6730   30.1640   22.2260 O.2   116  LEU116     -0.2718
     70  CB        21.0940   33.1540   22.3290 C.3   116  LEU116      0.0284
     71  CG        22.5100   33.7480   22.4950 C.3   116  LEU116      0.0019
     72  CD1       23.4200   33.3630   21.2490 C.3   116  LEU116      0.0001
     73  CD2       22.3190   35.2630   22.6960 C.3   116  LEU116      0.0001
     74  N         21.2200   30.5960   20.5430 N.am  117  SER117     -0.1938
     75  CA        22.0130   29.7670   19.6250 C.3   117  SER117      0.2055
     76  C         22.2890   30.7500   18.4850 C.2   117  SER117      0.2644
     77  O         21.3950   31.1020   17.7040 O.2   117  SER117     -0.2714
     78  CB        21.1800   28.5800   19.1750 C.3   117  SER117      0.2130
     79  OG        21.7140   28.0260   17.9720 O.3   117  SER117     -0.2179
     80  N         23.5430   31.1760   18.4490 N.am  118  SER118     -0.1935
     81  CA        24.0420   32.1990   17.5820 C.3   118  SER118      0.2055
     82  C         24.3900   31.8720   16.1460 C.2   118  SER118      0.2644
     83  O         24.9780   30.8120   15.8300 O.2   118  SER118     -0.2714
     84  CB        25.2530   32.7960   18.2700 C.3   118  SER118      0.2130
     85  OG        25.8680   33.8220   17.5070 O.3   118  SER118     -0.2179
     86  N         24.0230   32.8020   15.2690 N.am  119  SER119     -0.1935
     87  CA        24.4500   32.6610   13.8790 C.3   119  SER119      0.2055
     88  C         25.9870   32.8470   13.9560 C.2   119  SER119      0.2643
     89  O         26.5380   33.4740   14.8790 O.2   119  SER119     -0.2714
     90  CB        23.7780   33.7550   13.0520 C.3   119  SER119      0.2130
     91  OG        24.2820   35.0040   13.4650 O.3   119  SER119     -0.2179
     92  N         26.7230   32.3050   13.0030 N.am  120  ALA120     -0.1963
     93  CA        28.1870   32.4180   13.0760 C.3   120  ALA120      0.1728
     94  C         28.7270   33.8580   13.1240 C.2   120  ALA120      0.2616
     95  O         29.6520   34.1740   13.8700 O.2   120  ALA120     -0.2715
     96  CB        28.8110   31.6410   11.8870 C.3   120  ALA120      0.0334
     97  N         28.1180   34.7490   12.3640 N.am  121  ARG121     -0.1977
     98  CA        28.5860   36.1170   12.2890 C.3   121  ARG121      0.1597
     99  C         28.4370   36.8620   13.5990 C.2   121  ARG121      0.2287
    100  O         29.1520   37.8110   13.8390 O.2   121  ARG121     -0.2864
    101  CB        27.8390   36.8460   11.1610 C.3   121  ARG121      0.0334
    102  CG        27.6850   35.9450    9.8900 C.3   121  ARG121      0.0492
    103  CD        26.7340   36.5490    8.8450 C.3   121  ARG121      0.2205
    104  NE        25.3170   36.4770    9.2460 N.pl3 121  ARG121     -0.0865
    105  CZ        24.3440   37.2170    8.7110 C.cat 121  ARG121      0.5346
    106  NH1       24.5960   38.1140    7.7540 N.pl3 121  ARG121      0.1354
    107  NH2       23.0880   37.0440    9.1230 N.pl3 121  ARG121      0.1354
    108  N         28.6420   35.3000   16.7440 N.3   123  ARG123     -0.1245
    109  CA        29.3620   34.6480   17.8550 C.3   123  ARG123      0.1563
    110  C         30.3960   35.6040   18.5030 C.2   123  ARG123      0.2260
    111  O         30.4780   35.7330   19.7230 O.2   123  ARG123     -0.2867
    112  CB        29.9730   33.3050   17.3530 C.3   123  ARG123      0.0307
    113  CG        28.8470   32.3180   17.0600 C.3   123  ARG123      0.0489
    114  CD        29.1660   30.9320   16.4510 C.3   123  ARG123      0.2205
    115  NE        27.9050   30.4120   15.8800 N.pl3 123  ARG123     -0.0865
    116  CZ        27.7970   29.5290   14.8790 C.cat 123  ARG123      0.5346
    117  NH1       28.8910   28.9950   14.3200 N.pl3 123  ARG123      0.1354
    118  NH2       26.5930   29.2540   14.3480 N.pl3 123  ARG123      0.1354
    119  N         23.9890   19.1490   15.3040 N.3   151  ASP151     -0.1225
    120  CA        24.0380   20.2840   14.3950 C.3   151  ASP151      0.1805
    121  C         24.1630   21.6220   15.1630 C.2   151  ASP151      0.2597
    122  O         24.6510   22.6140   14.6280 O.2   151  ASP151     -0.2718
    123  CB        22.7660   20.3240   13.5190 C.3   151  ASP151      0.1424
    124  CG        22.6950   19.1670   12.5290 C.2   151  ASP151      0.3668
    125  OD1       23.7120   18.4480   12.3560 O.co2 151  ASP151     -0.2456
    126  OD2       21.6110   18.9800   11.9240 O.co2 151  ASP151     -0.2456
    127  N         23.6930   21.6470   16.4130 N.am  152  ASP152     -0.1974
    128  CA        23.7080   22.8820   17.1800 C.3   152  ASP152      0.1709
    129  C         24.9040   23.0330   18.0710 C.2   152  ASP152      0.2293
    130  O         25.0790   24.0900   18.7090 O.2   152  ASP152     -0.2864
    131  CB        22.4230   23.0020   17.9880 C.3   152  ASP152      0.1436
    132  CG        21.1980   23.0230   17.0860 C.2   152  ASP152      0.3671
    133  OD1       21.1620   23.8490   16.1430 O.co2 152  ASP152     -0.2456
    134  OD2       20.3170   22.2140   17.3130 O.co2 152  ASP152     -0.2456
    135  N         27.2010   26.4520   18.7560 N.3   155  THR155     -0.1218
    136  CA        26.4540   27.6710   18.4570 C.3   155  THR155      0.1862
    137  C         25.8540   28.2980   19.6970 C.2   155  THR155      0.2287
    138  O         25.4680   29.4470   19.6480 O.2   155  THR155     -0.2866
    139  CB        25.2370   27.4220   17.5370 C.3   155  THR155      0.1770
    140  OG1       24.2680   26.6000   18.2310 O.3   155  THR155     -0.2211
    141  CG2       25.6790   26.6730   16.2600 C.3   155  THR155      0.0375
    142  N         10.3010   21.8100   21.7260 N.3   176  ARG176     -0.1245
    143  CA         9.3760   22.6850   21.0080 C.3   176  ARG176      0.1563
    144  C          9.4820   22.2620   19.5450 C.2   176  ARG176      0.2260
    145  O         10.4120   21.5460   19.1580 O.2   176  ARG176     -0.2867
    146  CB         9.7330   24.1710   21.0960 C.3   176  ARG176      0.0307
    147  CG        11.1100   24.5380   20.5390 C.3   176  ARG176      0.0489
    148  CD        11.4140   26.0070   20.8970 C.3   176  ARG176      0.2205
    149  NE        12.6470   26.3880   20.1910 N.pl3 176  ARG176     -0.0865
    150  CZ        13.2510   27.5650   20.3100 C.cat 176  ARG176      0.5346
    151  NH1       12.7260   28.5060   21.1120 N.pl3 176  ARG176      0.1354
    152  NH2       14.3840   27.7690   19.6520 N.pl3 176  ARG176      0.1354
    153  N         13.3580   24.2990   15.1480 N.3   179  ASP179     -0.1239
    154  CA        14.7160   24.2080   15.7300 C.3   179  ASP179      0.1674
    155  C         14.5390   24.2970   17.2380 C.2   179  ASP179      0.2266
    156  O         13.9240   25.2660   17.7600 O.2   179  ASP179     -0.2867
    157  CB        15.5720   25.3250   15.2030 C.3   179  ASP179      0.1410
    158  CG        16.1250   24.9980   13.8160 C.2   179  ASP179      0.3668
    159  OD1       16.5160   23.8450   13.5950 O.co2 179  ASP179     -0.2456
    160  OD2       16.1830   25.8670   12.9780 O.co2 179  ASP179     -0.2456
    161  N         16.9960   24.5030   19.4210 N.3   181  TRP181     -0.1241
    162  CA        17.9340   25.5380   19.8810 C.3   181  TRP181      0.1605
    163  C         17.7580   26.7280   18.9420 C.2   181  TRP181      0.2264
    164  O         17.4820   26.4390   17.7530 O.2   181  TRP181     -0.2867
    165  CB        19.3990   25.0910   19.8210 C.3   181  TRP181      0.0550
    166  CG        19.7170   24.0420   20.7970 C.ar  181  TRP181      0.0003
    167  CD1       19.8110   22.7150   20.5470 C.ar  181  TRP181      0.0946
    168  CD2       20.0040   24.2190   22.1960 C.ar  181  TRP181      0.0152
    169  NE1       20.1630   22.0360   21.6970 N.ar  181  TRP181     -0.2442
    170  CE2       20.2760   22.9340   22.7250 C.ar  181  TRP181      0.0810
    171  CE3       20.0740   25.3430   23.0420 C.ar  181  TRP181      0.0012
    172  CZ2       20.6090   22.7100   24.0620 C.ar  181  TRP181      0.0191
    173  CZ3       20.4230   25.1290   24.3980 C.ar  181  TRP181      0.0001
    174  CH2       20.6760   23.8370   24.8950 C.ar  181  TRP181      0.0015
@<TRIPOS>BOND
     1    12    13    1
     2    13    16    1
     3    13    14    1
     4     4     3    2
     5    16    17    1
     6     3     2    1
     7    17    18   ar
     8    17    19   ar
     9   106   105    1
    10    14    20   am
    11    14    15    2
    12    20    21    1
    13     2     1    1
    14     2     5    1
    15    23    22    2
    16   105   107    1
    17   105   104    2
    18   103   104    1
    19   103   102    1
    20    22    21    1
    21     5     6    1
    22    21    24    1
    23    24    25    1
    24   102   101    1
    25     6     7   ar
    26     6     8   ar
    27    25    27   ar
    28    25    26   ar
    29    27    29   ar
    30     7     9   ar
    31   101    98    1
    32     8    10   ar
    33    38    36   ar
    34    26    28   ar
    35    96    93    1
    36   126   124   ar
    37    98    97    1
    38    98    99    1
    39   125   124   ar
    40    97    94   am
    41    29    30   ar
    42     9    11   ar
    43   124   123    1
    44    36    35    1
    45    36    37   ar
    46    10    11   ar
    47   160   158   ar
    48    92    93    1
    49    92    88   am
    50    90    91    1
    51    90    87    1
    52    93    94    1
    53    35    32    1
    54    94    95    2
    55    28    30   ar
    56   123   120    1
    57    31    32    1
    58   159   158   ar
    59    99   100    2
    60   158   157    1
    61    87    88    1
    62    87    86    1
    63    88    89    2
    64    32    33    1
    65   117   116    1
    66   118   116    1
    67   120   121    1
    68   120   119    1
    69    33    34    2
    70   122   121    2
    71   116   115    2
    72    62    61    2
    73   153   154    1
    74   121   127   am
    75   157   154    1
    76    86    82   am
    77   154   155    1
    78    61    60    1
    79    83    82    2
    80   115   114    1
    81   133   132   ar
    82    82    81    1
    83   141   139    1
    84    58    57    2
    85   127   128    1
    86   114   113    1
    87    56    57    1
    88    56    55    1
    89    57    59   am
    90   108   109    1
    91   113   112    1
    92   132   134   ar
    93   132   131    1
    94    59    60    1
    95   128   131    1
    96   128   129    1
    97    60    63    1
    98   155   156    2
    99   112   109    1
   100    85    84    1
   101   139   140    1
   102   139   136    1
   103    81    84    1
   104    81    80    1
   105    55    48   am
   106    77    76    2
   107   164   163    2
   108   109   110    1
   109    64    63    1
   110    63    65    1
   111    79    78    1
   112   129   130    2
   113    53    52   ar
   114    80    76   am
   115   136   135    1
   116   136   137    1
   117    76    75    1
   118   110   111    2
   119    48    49    2
   120    48    47    1
   121   163   162    1
   122   145   144    2
   123    78    75    1
   124   161   162    1
   125    52    54   ar
   126    52    51    1
   127   144   143    1
   128    75    74    1
   129   138   137    2
   130   152   150    1
   131    47    50    1
   132    47    46    1
   133   165   162    1
   134   165   166    1
   135    50    51    1
   136   149   150    2
   137   149   148    1
   138   150   151    1
   139   147   148    1
   140   147   146    1
   141    74    68   am
   142   167   166   ar
   143   167   169   ar
   144   166   168   ar
   145    42    41    2
   146   143   146    1
   147   143   142    1
   148    46    41   am
   149    72    71    1
   150    41    40    1
   151   169   170   ar
   152    68    69    2
   153    68    67    1
   154   168   170   ar
   155   168   171   ar
   156    70    71    1
   157    70    67    1
   158    71    73    1
   159    44    43    1
   160    67    66    1
   161   170   172   ar
   162   171   173   ar
   163    40    43    1
   164    40    39    1
   165    43    45    1
   166   172   174   ar
   167   173   174   ar
