@<TRIPOS>MOLECULE
tmp/1m4gA00.pdb
 174 168 0 0 0
SMALL
GASTEIGER

@<TRIPOS>ATOM
      1  N         15.7030   40.5080    7.8320 N.3    31  ALA31      -0.1231
      2  CA        17.0440   40.5870    8.3400 C.3    31  ALA31       0.1694
      3  C         17.7840   39.2560    8.2480 C.2    31  ALA31       0.2592
      4  O         19.0370   39.2400    8.1840 O.2    31  ALA31      -0.2718
      5  CB        17.0150   41.0590    9.8170 C.3    31  ALA31       0.0304
      6  N         17.0460   38.1540    8.2450 N.am   32  PHE32      -0.1976
      7  CA        17.6450   36.8100    8.2030 C.3    32  PHE32       0.1639
      8  C         17.7110   36.3190    6.7720 C.2    32  PHE32       0.2290
      9  O         17.8810   35.1110    6.5070 O.2    32  PHE32      -0.2864
     10  CB        16.8510   35.8020    9.0810 C.3    32  PHE32       0.0560
     11  CG        17.1820   35.8840   10.5670 C.ar   32  PHE32      -0.0200
     12  CD1       18.2910   35.1740   11.0840 C.ar   32  PHE32      -0.0042
     13  CD2       16.4800   36.7500   11.4200 C.ar   32  PHE32      -0.0042
     14  CE1       18.7080   35.3220   12.3990 C.ar   32  PHE32      -0.0003
     15  CE2       16.8990   36.9190   12.7680 C.ar   32  PHE32      -0.0003
     16  CZ        18.0290   36.1910   13.2550 C.ar   32  PHE32      -0.0000
     17  N         17.1840   33.9470   23.9630 N.3    81  VAL81      -0.1245
     18  CA        17.1160   35.1420   23.0580 C.3    81  VAL81       0.1561
     19  C         16.8420   34.7510   21.6380 C.2    81  VAL81       0.2260
     20  O         17.6470   34.0380   21.0060 O.2    81  VAL81      -0.2867
     21  CB        18.4300   35.9280   23.1350 C.3    81  VAL81       0.0252
     22  CG1       18.2420   37.3270   22.5010 C.3    81  VAL81       0.0019
     23  CG2       18.8740   36.1260   24.6320 C.3    81  VAL81       0.0019
     24  N         15.3870   35.8430   17.5900 N.3    83  GLY83      -0.1210
     25  CA        15.1100   36.8850   16.6250 C.3    83  GLY83       0.1956
     26  C         15.9380   38.1600   16.7210 C.2    83  GLY83       0.2612
     27  O         15.4320   39.2320   16.3620 O.2    83  GLY83      -0.2717
     28  N         17.2000   38.0780   17.1530 N.am   84  VAL84      -0.1965
     29  CA        18.0480   39.2600   17.2350 C.3    84  VAL84       0.1727
     30  C         18.2830   39.7490   15.8110 C.2    84  VAL84       0.2616
     31  O         18.8540   39.0170   14.9900 O.2    84  VAL84      -0.2715
     32  CB        19.3760   38.9320   17.9350 C.3    84  VAL84       0.0290
     33  CG1       20.3350   40.1440   17.8870 C.3    84  VAL84       0.0023
     34  CG2       19.0490   38.6120   19.4180 C.3    84  VAL84       0.0023
     35  N         17.8850   41.0060   15.5620 N.am   85  ALA85      -0.1963
     36  CA        18.0040   41.5730   14.1880 C.3    85  ALA85       0.1728
     37  C         18.0800   43.0950   14.2130 C.2    85  ALA85       0.2616
     38  O         17.3890   43.7500   15.0260 O.2    85  ALA85      -0.2715
     39  CB        16.7610   41.1400   13.3800 C.3    85  ALA85       0.0334
     40  N         18.9450   43.6750   13.3330 N.am   86  VAL86      -0.1977
     41  CA        19.0140   45.1440   13.2000 C.3    86  VAL86       0.1596
     42  C         18.7430   45.2850   11.6740 C.2    86  VAL86       0.2287
     43  O         19.3240   44.5590   10.8740 O.2    86  VAL86      -0.2864
     44  CB        20.3940   45.6630   13.5790 C.3    86  VAL86       0.0276
     45  CG1       20.5690   47.1220   13.0810 C.3    86  VAL86       0.0022
     46  CG2       20.5320   45.6430   15.1510 C.3    86  VAL86       0.0022
     47  N         18.7750   46.1580    7.9030 N.3    88  ALA88      -0.1245
     48  CA        20.0430   46.3420    7.1820 C.3    88  ALA88       0.1562
     49  C         20.6030   47.7290    6.9600 C.2    88  ALA88       0.2260
     50  O         21.8250   47.8870    6.9930 O.2    88  ALA88      -0.2867
     51  CB        20.0170   45.5750    5.8280 C.3    88  ALA88       0.0290
     52  N         22.5800   48.8770   10.1140 N.3    91  ARG91      -0.1231
     53  CA        23.6770   48.0220   10.6470 C.3    91  ARG91       0.1694
     54  C         25.0150   48.7410   10.7520 C.2    91  ARG91       0.2593
     55  O         25.2510   49.7520   10.0740 O.2    91  ARG91      -0.2718
     56  CB        23.8180   46.7730    9.7930 C.3    91  ARG91       0.0321
     57  CG        22.7350   45.7030   10.1270 C.3    91  ARG91       0.0489
     58  CD        22.7690   44.4780    9.2080 C.3    91  ARG91       0.2205
     59  NE        21.5020   43.7540    9.3290 N.pl3  91  ARG91      -0.0865
     60  CZ        21.0820   42.8050    8.5030 C.cat  91  ARG91       0.5346
     61  NH1       21.8470   42.4290    7.5040 N.pl3  91  ARG91       0.1354
     62  NH2       19.8690   42.3140    8.5890 N.pl3  91  ARG91       0.1354
     63  N         25.9080   48.2430   11.6070 N.am   92  GLY92      -0.1942
     64  CA        27.2040   48.8980   11.7700 C.3    92  GLY92       0.2014
     65  C         27.2730   50.0830   12.7030 C.2    92  GLY92       0.2639
     66  O         28.3090   50.7770   12.7410 O.2    92  GLY92      -0.2714
     67  N         26.2280   50.3450   13.4700 N.am   93  GLN93      -0.1963
     68  CA        26.2400   51.4610   14.4050 C.3    93  GLN93       0.1733
     69  C         26.0790   50.9620   15.8120 C.2    93  GLN93       0.2616
     70  O         25.6590   51.7590   16.6760 O.2    93  GLN93      -0.2715
     71  CB        25.0460   52.4040   14.2130 C.3    93  GLN93       0.0408
     72  CG        24.7240   52.7120   12.8860 C.3    93  GLN93       0.0908
     73  CD        23.7210   53.8360   12.8410 C.2    93  GLN93       0.2608
     74  OE1       23.2600   54.3640   13.9050 O.2    93  GLN93      -0.2717
     75  NE2       23.3640   54.2150   11.6400 N.am   93  GLN93      -0.0878
     76  N         26.3350   49.6750   16.0270 N.am   94  ARG94      -0.1963
     77  CA        26.2330   49.0900   17.3630 C.3    94  ARG94       0.1729
     78  C         24.8370   49.1430   17.9950 C.2    94  ARG94       0.2616
     79  O         24.6880   49.1140   19.2210 O.2    94  ARG94      -0.2715
     80  CB        27.3000   49.7270   18.2490 C.3    94  ARG94       0.0348
     81  CG        28.7200   49.3970   17.7110 C.3    94  ARG94       0.0492
     82  CD        29.8100   50.0890   18.5500 C.3    94  ARG94       0.2205
     83  NE        31.1520   49.7140   18.1040 N.pl3  94  ARG94      -0.0865
     84  CZ        32.2860   50.0720   18.7170 C.cat  94  ARG94       0.5346
     85  NH1       32.2540   50.8440   19.8060 N.pl3  94  ARG94       0.1354
     86  NH2       33.4570   49.6120   18.2740 N.pl3  94  ARG94       0.1354
     87  N         23.7910   49.2330   17.1680 N.am   95  LEU95      -0.1963
     88  CA        22.4460   49.1540   17.7600 C.3    95  LEU95       0.1728
     89  C         22.2680   47.7810   18.4330 C.2    95  LEU95       0.2616
     90  O         21.4880   47.6600   19.3780 O.2    95  LEU95      -0.2715
     91  CB        21.3620   49.3230   16.6900 C.3    95  LEU95       0.0311
     92  CG        21.1960   50.7700   16.2620 C.3    95  LEU95       0.0022
     93  CD1       20.1350   50.7860   15.1430 C.3    95  LEU95       0.0001
     94  CD2       20.6870   51.6670   17.3910 C.3    95  LEU95       0.0001
     95  N         22.9070   46.7170   17.9340 N.am   96  VAL96      -0.1977
     96  CA        22.7080   45.4210   18.6400 C.3    96  VAL96       0.1596
     97  C         23.1790   45.5610   20.1150 C.2    96  VAL96       0.2287
     98  O         22.6870   44.8130   20.9940 O.2    96  VAL96      -0.2864
     99  CB        23.5140   44.2240   17.9490 C.3    96  VAL96       0.0276
    100  CG1       25.0410   44.4290   18.1250 C.3    96  VAL96       0.0022
    101  CG2       23.0410   42.8320   18.5190 C.3    96  VAL96       0.0022
    102  N         21.2510   31.3890   24.0440 N.3   116  LEU116     -0.1231
    103  CA        20.8400   31.6620   22.6860 C.3   116  LEU116      0.1693
    104  C         21.6790   30.7610   21.7850 C.2   116  LEU116      0.2593
    105  O         22.6730   30.1640   22.2260 O.2   116  LEU116     -0.2718
    106  CB        21.0940   33.1540   22.3290 C.3   116  LEU116      0.0284
    107  CG        22.5100   33.7480   22.4950 C.3   116  LEU116      0.0019
    108  CD1       23.4200   33.3630   21.2490 C.3   116  LEU116      0.0001
    109  CD2       22.3190   35.2630   22.6960 C.3   116  LEU116      0.0001
    110  N         21.2200   30.5960   20.5430 N.am  117  SER117     -0.1938
    111  CA        22.0130   29.7670   19.6250 C.3   117  SER117      0.2055
    112  C         22.2890   30.7500   18.4850 C.2   117  SER117      0.2644
    113  O         21.3950   31.1020   17.7040 O.2   117  SER117     -0.2714
    114  CB        21.1800   28.5800   19.1750 C.3   117  SER117      0.2130
    115  OG        21.7140   28.0260   17.9720 O.3   117  SER117     -0.2179
    116  N         23.5430   31.1760   18.4490 N.am  118  SER118     -0.1935
    117  CA        24.0420   32.1990   17.5820 C.3   118  SER118      0.2055
    118  C         24.3900   31.8720   16.1460 C.2   118  SER118      0.2643
    119  O         24.9780   30.8120   15.8300 O.2   118  SER118     -0.2714
    120  CB        25.2530   32.7960   18.2700 C.3   118  SER118      0.2130
    121  OG        25.8680   33.8220   17.5070 O.3   118  SER118     -0.2179
    122  N         24.0230   32.8020   15.2690 N.am  119  SER119     -0.1949
    123  CA        24.4500   32.6610   13.8790 C.3   119  SER119      0.1924
    124  C         25.9870   32.8470   13.9560 C.2   119  SER119      0.2314
    125  O         26.5380   33.4740   14.8790 O.2   119  SER119     -0.2863
    126  CB        23.7780   33.7550   13.0520 C.3   119  SER119      0.2116
    127  OG        24.2820   35.0040   13.4650 O.3   119  SER119     -0.2180
    128  N         28.1180   34.7490   12.3640 N.3   121  ARG121     -0.1231
    129  CA        28.5860   36.1170   12.2890 C.3   121  ARG121      0.1694
    130  C         28.4370   36.8620   13.5990 C.2   121  ARG121      0.2591
    131  O         29.1520   37.8110   13.8390 O.2   121  ARG121     -0.2718
    132  CB        27.8390   36.8460   11.1610 C.3   121  ARG121      0.0321
    133  CG        27.6850   35.9450    9.8900 C.3   121  ARG121      0.0489
    134  CD        26.7340   36.5490    8.8450 C.3   121  ARG121      0.2205
    135  NE        25.3170   36.4770    9.2460 N.pl3 121  ARG121     -0.0865
    136  CZ        24.3440   37.2170    8.7110 C.cat 121  ARG121      0.5346
    137  NH1       24.5960   38.1140    7.7540 N.pl3 121  ARG121      0.1354
    138  NH2       23.0880   37.0440    9.1230 N.pl3 121  ARG121      0.1354
    139  N         27.5200   36.4230   14.4660 N.am  122  ALA122     -0.1980
    140  CA        27.3280   37.1310   15.7440 C.3   122  ALA122      0.1597
    141  C         28.0610   36.4870   16.9390 C.2   122  ALA122      0.2287
    142  O         28.1210   37.0850   18.0100 O.2   122  ALA122     -0.2864
    143  CB        25.7990   37.2610   16.0580 C.3   122  ALA122      0.0319
    144  N         31.1780   36.3400   17.7240 N.3   124  ARG124     -0.1231
    145  CA        32.1130   37.2590   18.3620 C.3   124  ARG124      0.1694
    146  C         31.4850   38.4430   19.1120 C.2   124  ARG124      0.2592
    147  O         32.0550   38.9350   20.0710 O.2   124  ARG124     -0.2718
    148  CB        33.1010   37.7800   17.3210 C.3   124  ARG124      0.0321
    149  CG        32.5030   38.6590   16.2770 C.3   124  ARG124      0.0489
    150  CD        33.6140   39.0410   15.2940 C.3   124  ARG124      0.2205
    151  NE        33.1070   39.8350   14.1960 N.pl3 124  ARG124     -0.0865
    152  CZ        33.0660   41.1640   14.1980 C.cat 124  ARG124      0.5346
    153  NH1       33.5050   41.8440   15.2520 N.pl3 124  ARG124      0.1354
    154  NH2       32.5940   41.8070   13.1380 N.pl3 124  ARG124      0.1354
    155  N         30.2900   38.8960   18.6940 N.am  125  LEU125     -0.1966
    156  CA        29.6300   40.0070   19.3560 C.3   125  LEU125      0.1728
    157  C         29.2430   39.5330   20.7610 C.2   125  LEU125      0.2616
    158  O         29.5270   40.2060   21.7340 O.2   125  LEU125     -0.2715
    159  CB        28.3810   40.4730   18.5550 C.3   125  LEU125      0.0311
    160  CG        28.6360   40.5670   17.0210 C.3   125  LEU125      0.0022
    161  CD1       27.3650   40.8900   16.2560 C.3   125  LEU125      0.0001
    162  CD2       29.7120   41.6710   16.7240 C.3   125  LEU125      0.0001
    163  N         28.6460   38.3530   20.8660 N.am  126  TYR126     -0.1974
    164  CA        28.2160   37.8860   22.2000 C.3   126  TYR126      0.1639
    165  C         29.4430   37.6230   23.0930 C.2   126  TYR126      0.2290
    166  O         29.4900   38.0260   24.2450 O.2   126  TYR126     -0.2864
    167  CB        27.4160   36.6140   22.0420 C.3   126  TYR126      0.0560
    168  CG        26.1400   36.8500   21.2910 C.ar  126  TYR126     -0.0198
    169  CD1       25.1980   37.7820   21.7870 C.ar  126  TYR126     -0.0009
    170  CD2       25.8500   36.1610   20.1350 C.ar  126  TYR126     -0.0009
    171  CE1       23.9690   38.0010   21.1030 C.ar  126  TYR126      0.0417
    172  CE2       24.6040   36.3600   19.4570 C.ar  126  TYR126      0.0417
    173  CZ        23.6900   37.2930   19.9630 C.ar  126  TYR126      0.1957
    174  OH        22.4630   37.5290   19.3190 O.3   126  TYR126     -0.2866
@<TRIPOS>BOND
     1    51    48    1
     2     9     8    2
     3     8     7    1
     4    49    50    2
     5    49    48    1
     6    48    47    1
     7    61    60    1
     8   137   136    1
     9     1     2    1
    10     4     3    2
    11     7     6    1
    12     7    10    1
    13     6     3   am
    14     3     2    1
    15     2     5    1
    16    60    62    1
    17    60    59    2
    18   136   138    1
    19   136   135    2
    20   134   135    1
    21   134   133    1
    22    10    11    1
    23    58    59    1
    24    58    57    1
    25    56    57    1
    26    56    53    1
    27   133   132    1
    28    55    54    2
    29    52    53    1
    30    11    12   ar
    31    11    13   ar
    32    53    54    1
    33    54    63   am
    34    43    42    2
    35    12    14   ar
    36   132   129    1
    37    13    15   ar
    38    63    64    1
    39    75    73   am
    40    42    41    1
    41    64    65    1
    42   129   128    1
    43   129   130    1
    44    14    16   ar
    45    65    66    2
    46    65    67   am
    47    15    16   ar
    48    73    72    1
    49    73    74    2
    50    72    71    1
    51   126   127    1
    52   126   123    1
    53    45    44    1
    54   154   152    1
    55    41    40    1
    56    41    44    1
    57    40    37   am
    58    39    36    1
    59    67    68    1
    60    44    46    1
    61   130   131    2
    62   130   139   am
    63   123   124    1
    64   123   122    1
    65   124   125    2
    66    36    37    1
    67    36    35    1
    68   151   152    2
    69   151   150    1
    70   152   153    1
    71    37    38    2
    72    71    68    1
    73    68    69    1
    74   139   140    1
    75    31    30    2
    76    93    92    1
    77   122   118   am
    78   150   149    1
    79    35    30   am
    80   140   143    1
    81   140   141    1
    82    30    29    1
    83    69    76   am
    84    69    70    2
    85   119   118    2
    86    76    77    1
    87   118   117    1
    88   161   160    1
    89    92    91    1
    90    92    94    1
    91   149   148    1
    92    27    26    2
    93    25    26    1
    94    25    24    1
    95    91    88    1
    96    26    28   am
    97   162   160    1
    98   141   142    2
    99   160   159    1
   100    28    29    1
   101    87    88    1
   102    87    78   am
   103    29    32    1
   104   148   145    1
   105    77    78    1
   106    77    80    1
   107   121   120    1
   108   117   120    1
   109   117   116    1
   110   113   112    2
   111    81    80    1
   112    81    82    1
   113   144   145    1
   114    88    89    1
   115    33    32    1
   116    95    89   am
   117    95    96    1
   118    32    34    1
   119    99   100    1
   120    99   101    1
   121    99    96    1
   122   115   114    1
   123    78    79    2
   124    83    82    1
   125    83    84    2
   126    86    84    1
   127   145   146    1
   128    89    90    2
   129   116   112   am
   130   112   111    1
   131   159   156    1
   132    96    97    1
   133   155   146   am
   134   155   156    1
   135    84    85    1
   136   146   147    2
   137   114   111    1
   138   174   173    1
   139   156   157    1
   140   172   173   ar
   141   172   170   ar
   142   111   110    1
   143   173   171   ar
   144    97    98    2
   145   170   168   ar
   146   110   104   am
   147   157   163   am
   148   157   158    2
   149   163   164    1
   150    20    19    2
   151   171   169   ar
   152   108   107    1
   153   168   169   ar
   154   168   167    1
   155    19    18    1
   156   104   105    2
   157   104   103    1
   158   167   164    1
   159   164   165    1
   160   106   107    1
   161   106   103    1
   162   107   109    1
   163    22    21    1
   164   103   102    1
   165    18    21    1
   166    18    17    1
   167   165   166    2
   168    21    23    1
