@<TRIPOS>MOLECULE
tmp/1m4nA02.pdb
 114 112 0 0 0
SMALL
GASTEIGER

@<TRIPOS>ATOM
      1  N          6.4490    6.3870   26.6060 N.3     8  PHE8       -0.1241
      2  CA         6.7100    5.3240   27.5730 C.3     8  PHE8        0.1605
      3  C          5.4330    4.5430   27.8590 C.2     8  PHE8        0.2264
      4  O          5.4530    3.5180   28.5430 O.2     8  PHE8       -0.2867
      5  CB         7.2410    5.9150   28.8820 C.3     8  PHE8        0.0534
      6  CG         8.5580    6.6230   28.7410 C.ar    8  PHE8       -0.0203
      7  CD1        9.6940    5.9340   28.3230 C.ar    8  PHE8       -0.0042
      8  CD2        8.6690    7.9790   29.0390 C.ar    8  PHE8       -0.0042
      9  CE1       10.9210    6.5830   28.2050 C.ar    8  PHE8       -0.0003
     10  CE2        9.8920    8.6390   28.9250 C.ar    8  PHE8       -0.0003
     11  CZ        11.0200    7.9380   28.5080 C.ar    8  PHE8       -0.0000
     12  N          5.3600    0.7890   26.6300 N.3    11  TRP11      -0.1241
     13  CA         6.0850   -0.1410   27.4930 C.3    11  TRP11       0.1605
     14  C          5.4310   -0.3850   28.8460 C.2    11  TRP11       0.2264
     15  O          5.3270   -1.5280   29.2930 O.2    11  TRP11      -0.2867
     16  CB         7.5190    0.3440   27.7210 C.3    11  TRP11       0.0550
     17  CG         8.4200    0.1080   26.5570 C.ar   11  TRP11       0.0003
     18  CD1        8.5080    0.8550   25.4160 C.ar   11  TRP11       0.0946
     19  CD2        9.3370   -0.9800   26.3970 C.ar   11  TRP11       0.0152
     20  NE1        9.4250    0.2980   24.5560 N.ar   11  TRP11      -0.2442
     21  CE2        9.9490   -0.8290   25.1330 C.ar   11  TRP11       0.0810
     22  CE3        9.7020   -2.0700   27.2010 C.ar   11  TRP11       0.0012
     23  CZ2       10.9070   -1.7290   24.6500 C.ar   11  TRP11       0.0191
     24  CZ3       10.6540   -2.9650   26.7210 C.ar   11  TRP11       0.0001
     25  CH2       11.2450   -2.7870   25.4560 C.ar   11  TRP11       0.0015
     26  N          8.5340   -3.6300   19.8120 N.3    32  GLY32      -0.1210
     27  CA         9.2430   -2.3700   19.9290 C.3    32  GLY32       0.1956
     28  C         10.6260   -2.5550   20.5250 C.2    32  GLY32       0.2612
     29  O         11.3530   -1.5890   20.7430 O.2    32  GLY32      -0.2717
     30  N         10.9850   -3.8080   20.7890 N.am   33  LEU33      -0.1965
     31  CA        12.2840   -4.1440   21.3620 C.3    33  LEU33       0.1728
     32  C         13.1800   -4.7100   20.2670 C.2    33  LEU33       0.2616
     33  O         12.9580   -5.8260   19.7870 O.2    33  LEU33      -0.2715
     34  CB        12.1000   -5.1750   22.4790 C.3    33  LEU33       0.0311
     35  CG        13.3160   -5.7840   23.1800 C.3    33  LEU33       0.0022
     36  CD1       14.0870   -4.7160   23.9470 C.3    33  LEU33       0.0001
     37  CD2       12.8320   -6.8730   24.1350 C.3    33  LEU33       0.0001
     38  N         14.1910   -3.9360   19.8800 N.am   34  ALA34      -0.1963
     39  CA        15.1210   -4.3360   18.8320 C.3    34  ALA34       0.1728
     40  C         16.1820   -5.3320   19.3010 C.2    34  ALA34       0.2616
     41  O         17.3480   -4.9770   19.4690 O.2    34  ALA34      -0.2715
     42  CB        15.7980   -3.0970   18.2400 C.3    34  ALA34       0.0334
     43  N         15.7800   -6.5800   19.5150 N.am   35  GLU35      -0.1977
     44  CA        16.7280   -7.5980   19.9410 C.3    35  GLU35       0.1602
     45  C         16.6380   -8.8210   19.0260 C.2    35  GLU35       0.2287
     46  O         15.5750   -9.1280   18.4730 O.2    35  GLU35      -0.2864
     47  CB        16.4780   -7.9910   21.4030 C.3    35  GLU35       0.0415
     48  CG        16.5530   -6.8250   22.4180 C.3    35  GLU35       0.1163
     49  CD        17.8300   -5.9790   22.3300 C.2    35  GLU35       0.3649
     50  OE1       18.9040   -6.5000   21.9540 O.co2  35  GLU35      -0.2457
     51  OE2       17.7630   -4.7740   22.6650 O.co2  35  GLU35      -0.2457
     52  N         18.1260    6.6870   16.5840 N.3   133  TYR133     -0.1228
     53  CA        17.9720    5.9040   17.8020 C.3   133  TYR133      0.1721
     54  C         17.7950    6.8460   18.9910 C.2   133  TYR133      0.2437
     55  O         18.7200    7.5570   19.3750 O.2   133  TYR133     -0.2733
     56  CB        19.2100    5.0170   17.9670 C.3   133  TYR133      0.0547
     57  CG        19.3590    4.3690   19.3210 C.ar  133  TYR133     -0.0200
     58  CD1       18.3160    3.6250   19.8850 C.ar  133  TYR133     -0.0009
     59  CD2       20.5600    4.4700   20.0240 C.ar  133  TYR133     -0.0009
     60  CE1       18.4690    2.9940   21.1190 C.ar  133  TYR133      0.0417
     61  CE2       20.7260    3.8450   21.2580 C.ar  133  TYR133      0.0417
     62  CZ        19.6790    3.1090   21.8000 C.ar  133  TYR133      0.1957
     63  OH        19.8480    2.4840   23.0140 O.3   133  TYR133     -0.2866
     64  N         16.5950    6.8590   19.5890 N.am  134  PRO134     -0.2718
     65  CA        16.3220    7.7370   20.7300 C.3   134  PRO134      0.1535
     66  C         17.2330    7.5760   21.9460 C.2   134  PRO134      0.2599
     67  O         17.2730    8.4510   22.7980 O.2   134  PRO134     -0.2715
     68  CB        14.8450    7.4700   21.0370 C.3   134  PRO134      0.0310
     69  CG        14.6290    6.0620   20.5430 C.3   134  PRO134      0.0237
     70  CD        15.4190    6.0290   19.2600 C.3   134  PRO134      0.0939
     71  N         17.9650    6.4680   22.0200 N.am  135  GLY135     -0.1955
     72  CA        18.8720    6.2670   23.1340 C.3   135  GLY135      0.1869
     73  C         19.9710    7.3150   23.1180 C.2   135  GLY135      0.2309
     74  O         20.5320    7.6620   24.1660 O.2   135  GLY135     -0.2863
     75  N         19.2450    2.5070   12.4050 N.3   190  ASN190     -0.1240
     76  CA        18.2020    2.1880   13.3590 C.3   190  ASN190      0.1653
     77  C         17.6260    3.6020   13.4060 C.2   190  ASN190      0.2266
     78  O         18.3560    4.5470   13.6990 O.2   190  ASN190     -0.2867
     79  CB        18.7750    1.8000   14.7220 C.3   190  ASN190      0.1155
     80  CG        17.7120    1.7620   15.8070 C.2   190  ASN190      0.2627
     81  OD1       16.5160    1.7670   15.5140 O.2   190  ASN190     -0.2716
     82  ND2       18.1430    1.7180   17.0680 N.am  190  ASN190     -0.0877
     83  N         24.8580   -2.5760   13.6280 N.3   221  TYR221     -0.1241
     84  CA        23.9970   -3.4360   12.8090 C.3   221  TYR221      0.1605
     85  C         24.6780   -3.8990   11.5220 C.2   221  TYR221      0.2264
     86  O         24.0310   -4.4940   10.6570 O.2   221  TYR221     -0.2867
     87  CB        22.6930   -2.7010   12.4520 C.3   221  TYR221      0.0534
     88  CG        21.7820   -2.4520   13.6300 C.ar  221  TYR221     -0.0201
     89  CD1       21.0100   -3.4830   14.1710 C.ar  221  TYR221     -0.0009
     90  CD2       21.7340   -1.2020   14.2450 C.ar  221  TYR221     -0.0009
     91  CE1       20.2190   -3.2710   15.3050 C.ar  221  TYR221      0.0417
     92  CE2       20.9500   -0.9810   15.3770 C.ar  221  TYR221      0.0417
     93  CZ        20.2000   -2.0150   15.9010 C.ar  221  TYR221      0.1957
     94  OH        19.4420   -1.7980   17.0270 O.3   221  TYR221     -0.2866
     95  N         23.5790   -6.8350   18.8580 N.3   261  LYS261     -0.1245
     96  CA        22.5440   -7.0790   17.8540 C.3   261  LYS261      0.1561
     97  C         22.7450   -8.2320   16.8780 C.2   261  LYS261      0.2260
     98  O         21.7880   -8.9390   16.5710 O.2   261  LYS261     -0.2867
     99  CB        22.2890   -5.7850   17.0770 C.3   261  LYS261      0.0271
    100  CG        22.1610   -4.5630   17.9810 C.3   261  LYS261      0.0035
    101  CD        21.0310   -4.7140   19.0030 C.3   261  LYS261      0.0206
    102  CE        20.9630   -3.4970   19.9280 C.3   261  LYS261      0.1093
    103  NZ        19.7350   -3.4710   20.7790 N.3   261  LYS261     -0.1314
    104  N          8.4770    2.2780   13.8150 N.3   395  ARG395     -0.1245
    105  CA         9.5050    1.2520   13.7460 C.3   395  ARG395      0.1563
    106  C          8.8440   -0.0120   14.2900 C.2   395  ARG395      0.2260
    107  O          8.2340    0.0090   15.3570 O.2   395  ARG395     -0.2867
    108  CB        10.7260    1.6130   14.6000 C.3   395  ARG395      0.0307
    109  CG        11.9440    0.7310   14.2990 C.3   395  ARG395      0.0489
    110  CD        13.0400    0.8410   15.3610 C.3   395  ARG395      0.2205
    111  NE        12.6140    0.2730   16.6400 N.pl3 395  ARG395     -0.0865
    112  CZ        13.4190    0.0630   17.6790 C.cat 395  ARG395      0.5346
    113  NH1       14.7060    0.3730   17.5970 N.pl3 395  ARG395      0.1354
    114  NH2       12.9370   -0.4570   18.8020 N.pl3 395  ARG395      0.1354
@<TRIPOS>BOND
     1    86    85    2
     2    85    84    1
     3    75    76    1
     4    87    84    1
     5    87    88    1
     6    84    83    1
     7    76    77    1
     8    76    79    1
     9    77    78    2
    10    88    89   ar
    11    88    90   ar
    12   105   104    1
    13   105   106    1
    14   105   108    1
    15    89    91   ar
    16    90    92   ar
    17   106   107    2
    18   109   108    1
    19   109   110    1
    20    79    80    1
    21    91    93   ar
    22   110   111    1
    23    92    93   ar
    24    81    80    2
    25    80    82   am
    26    93    94    1
    27    98    97    2
    28    52    53    1
    29   111   112    2
    30    97    96    1
    31    99    96    1
    32    99   100    1
    33   113   112    1
    34   112   114    1
    35    53    56    1
    36    53    54    1
    37    96    95    1
    38    56    57    1
    39   100   101    1
    40    42    39    1
    41    46    45    2
    42    39    40    1
    43    39    38    1
    44    54    55    2
    45    54    64   am
    46   101   102    1
    47    45    44    1
    48    70    64    1
    49    70    69    1
    50    40    41    2
    51    40    43   am
    52    57    58   ar
    53    57    59   ar
    54    43    44    1
    55    64    65    1
    56    33    32    2
    57    26    27    1
    58    38    32   am
    59    58    60   ar
    60   102   103    1
    61    27    28    1
    62    44    47    1
    63    59    61   ar
    64    32    31    1
    65    28    29    2
    66    28    30   am
    67    69    68    1
    68    65    68    1
    69    65    66    1
    70    30    31    1
    71    60    62   ar
    72    61    62   ar
    73    31    34    1
    74    47    48    1
    75    62    63    1
    76    66    71   am
    77    66    67    2
    78    50    49   ar
    79    71    72    1
    80    49    48    1
    81    49    51   ar
    82    34    35    1
    83    73    72    1
    84    73    74    2
    85    35    36    1
    86    35    37    1
    87    20    21   ar
    88    20    18   ar
    89    23    21   ar
    90    23    25   ar
    91    21    19   ar
    92    18    17   ar
    93    25    24   ar
    94    19    17   ar
    95    19    22   ar
    96    17    16    1
    97     1     2    1
    98    12    13    1
    99    24    22   ar
   100    13    16    1
   101    13    14    1
   102     2     3    1
   103     2     5    1
   104     3     4    2
   105     9     7   ar
   106     9    11   ar
   107     7     6   ar
   108    11    10   ar
   109     6     5    1
   110     6     8   ar
   111    14    15    2
   112    10     8   ar
