@<TRIPOS>MOLECULE
tmp/1m4pA00.pdb
 160 158 0 0 0
SMALL
GASTEIGER

@<TRIPOS>ATOM
      1  N         -9.6200    7.6560  -11.4770 N.3    33  ASP33      -0.1239
      2  CA        -9.0060    7.5700  -12.7910 C.3    33  ASP33       0.1674
      3  C         -8.4000    6.1780  -12.9760 C.2    33  ASP33       0.2266
      4  O         -8.2200    5.7200  -14.1030 O.2    33  ASP33      -0.2867
      5  CB        -7.8840    8.5990  -12.9420 C.3    33  ASP33       0.1410
      6  CG        -8.2720   10.0360  -12.5880 C.2    33  ASP33       0.3668
      7  OD1       -8.5950   10.3430  -11.4300 O.co2  33  ASP33      -0.2456
      8  OD2       -8.2330   10.8690  -13.5720 O.co2  33  ASP33      -0.2456
      9  N         -4.7330    6.0560  -15.8560 N.3    57  THR57      -0.1218
     10  CA        -3.9490    7.2800  -15.9030 C.3    57  THR57       0.1862
     11  C         -4.2960    8.1820  -14.7170 C.2    57  THR57       0.2287
     12  O         -5.4100    8.6960  -14.6290 O.2    57  THR57      -0.2866
     13  CB        -4.1880    7.9410  -17.2610 C.3    57  THR57       0.1770
     14  OG1       -5.5930    8.1840  -17.2870 O.3    57  THR57      -0.2211
     15  CG2       -3.9540    6.9830  -18.4310 C.3    57  THR57       0.0375
     16  N         -1.7790   13.6100  -12.7330 N.3    60  VAL60      -0.1245
     17  CA        -0.5500   14.1810  -12.2060 C.3    60  VAL60       0.1561
     18  C         -0.6010   15.7040  -12.3420 C.2    60  VAL60       0.2260
     19  O         -0.6210   16.2320  -13.4530 O.2    60  VAL60      -0.2867
     20  CB         0.6590   13.5590  -12.9070 C.3    60  VAL60       0.0252
     21  CG1        1.8490   14.5200  -12.9050 C.3    60  VAL60       0.0019
     22  CG2        1.0340   12.2200  -12.2680 C.3    60  VAL60       0.0019
     23  N          0.6540   19.6940  -11.9280 N.3    62  TYR62      -0.1241
     24  CA         1.8710   20.3910  -12.3070 C.3    62  TYR62       0.1605
     25  C          1.9570   21.7570  -11.6220 C.2    62  TYR62       0.2264
     26  O          1.2590   22.0070  -10.6410 O.2    62  TYR62      -0.2867
     27  CB         1.7820   20.5990  -13.8200 C.3    62  TYR62       0.0534
     28  CG         3.0760   20.2720  -14.5690 C.ar   62  TYR62      -0.0201
     29  CD1        3.5120   18.9650  -14.6550 C.ar   62  TYR62      -0.0009
     30  CD2        3.8060   21.2830  -15.1590 C.ar   62  TYR62      -0.0009
     31  CE1        4.7290   18.6580  -15.3610 C.ar   62  TYR62       0.0417
     32  CE2        5.0240   20.9760  -15.8630 C.ar   62  TYR62       0.0417
     33  CZ         5.4250   19.6780  -15.9290 C.ar   62  TYR62       0.1957
     34  OH         6.5750   19.3870  -16.5950 O.3    62  TYR62      -0.2866
     35  N         -1.9280   16.5820  -15.7860 N.3    67  TYR67      -0.1227
     36  CA        -1.9720   15.6180  -16.8720 C.3    67  TYR67       0.1736
     37  C         -2.3840   14.2340  -16.3600 C.2    67  TYR67       0.2595
     38  O         -2.7270   14.0790  -15.1900 O.2    67  TYR67      -0.2718
     39  CB        -0.5490   15.5390  -17.4250 C.3    67  TYR67       0.0548
     40  CG        -0.2750   16.5100  -18.5770 C.ar   67  TYR67      -0.0200
     41  CD1       -0.1960   17.8650  -18.3330 C.ar   67  TYR67      -0.0009
     42  CD2       -0.1090   16.0280  -19.8590 C.ar   67  TYR67      -0.0009
     43  CE1        0.0620   18.7790  -19.4170 C.ar   67  TYR67       0.0417
     44  CE2        0.1480   16.9410  -20.9440 C.ar   67  TYR67       0.0417
     45  CZ         0.2210   18.2710  -20.6690 C.ar   67  TYR67       0.1957
     46  OH         0.4640   19.1320  -21.6920 O.3    67  TYR67      -0.2866
     47  N         -2.3350   13.2670  -17.2640 N.am   68  ASN68      -0.1960
     48  CA        -2.6980   11.9020  -16.9190 C.3    68  ASN68       0.1819
     49  C         -1.5370   10.9670  -17.2660 C.2    68  ASN68       0.2621
     50  O         -1.1680   10.8380  -18.4310 O.2    68  ASN68      -0.2715
     51  CB        -3.9260   11.4440  -17.7080 C.3    68  ASN68       0.1195
     52  CG        -4.7860   12.6380  -18.1270 C.2    68  ASN68       0.2630
     53  OD1       -5.4350   13.2830  -17.3200 O.2    68  ASN68      -0.2716
     54  ND2       -4.7550   12.8960  -19.4320 N.am   68  ASN68      -0.0877
     55  N         -0.9960   10.3400  -16.2320 N.am   69  ILE69      -0.1964
     56  CA         0.1140    9.4210  -16.4130 C.3    69  ILE69       0.1712
     57  C         -0.3540    7.9960  -16.1090 C.2    69  ILE69       0.2458
     58  O         -0.9510    7.7450  -15.0640 O.2    69  ILE69      -0.2730
     59  CB         1.3180    9.8630  -15.5780 C.3    69  ILE69       0.0289
     60  CG1        2.6110    9.7770  -16.3910 C.3    69  ILE69       0.0022
     61  CG2        1.4050    9.0660  -14.2760 C.3    69  ILE69       0.0023
     62  CD1        3.2700   11.1510  -16.5210 C.3    69  ILE69       0.0001
     63  N         -0.0580    7.0770  -17.0670 N.am   70  PRO70      -0.2727
     64  CA        -0.4420    5.6850  -16.9120 C.3    70  PRO70       0.1402
     65  C          0.4630    4.9750  -15.9040 C.2    70  PRO70       0.2269
     66  O          1.6520    5.2760  -15.8120 O.2    70  PRO70      -0.2865
     67  CB        -0.3520    5.0940  -18.3110 C.3    70  PRO70       0.0296
     68  CG         0.5210    6.0470  -19.1100 C.3    70  PRO70       0.0237
     69  CD         0.6470    7.3390  -18.3190 C.3    70  PRO70       0.0939
     70  N          3.3640    2.2800  -16.9920 N.3    89  LYS89      -0.1245
     71  CA         3.0910    1.6600  -18.2770 C.3    89  LYS89       0.1561
     72  C          2.7700    2.7470  -19.3050 C.2    89  LYS89       0.2260
     73  O          1.6040    2.9860  -19.6160 O.2    89  LYS89      -0.2867
     74  CB         1.9960    0.6000  -18.1390 C.3    89  LYS89       0.0271
     75  CG         0.7260    1.2010  -17.5340 C.3    89  LYS89       0.0035
     76  CD        -0.5260    0.5910  -18.1700 C.3    89  LYS89       0.0206
     77  CE        -1.2410    1.6110  -19.0580 C.3    89  LYS89       0.1093
     78  NZ        -2.4310    2.1550  -18.3660 N.3    89  LYS89      -0.1314
     79  N          2.8760    4.7460  -23.0500 N.3    91  THR91      -0.1218
     80  CA         2.5040    4.3370  -24.3940 C.3    91  THR91       0.1862
     81  C          3.7410    4.2560  -25.2890 C.2    91  THR91       0.2287
     82  O          4.8400    3.9730  -24.8120 O.2    91  THR91      -0.2866
     83  CB         1.4440    5.3120  -24.9080 C.3    91  THR91       0.1770
     84  OG1        2.1290    6.5590  -24.9840 O.3    91  THR91      -0.2211
     85  CG2        0.3310    5.5600  -23.8880 C.3    91  THR91       0.0375
     86  N          4.9950    8.3430  -26.1070 N.3    94  MET94      -0.1245
     87  CA         5.5600    9.0440  -24.9650 C.3    94  MET94       0.1570
     88  C          7.0890    9.0300  -25.0160 C.2    94  MET94       0.2261
     89  O          7.6770    8.6510  -26.0280 O.2    94  MET94      -0.2867
     90  CB         5.0860    8.3770  -23.6720 C.3    94  MET94       0.0387
     91  CG         4.2150    9.3300  -22.8520 C.3    94  MET94       0.0595
     92  SD         3.6090    8.4980  -21.3920 S.3    94  MET94      -0.1393
     93  CE         1.8510    8.6840  -21.6390 C.3    94  MET94       0.0692
     94  N          6.2130   11.3710   -9.3020 N.3   134  PHE134     -0.1241
     95  CA         5.7960   11.5060  -10.6880 C.3   134  PHE134      0.1605
     96  C          5.1850   12.8850  -10.9450 C.2   134  PHE134      0.2264
     97  O          4.9110   13.2420  -12.0890 O.2   134  PHE134     -0.2867
     98  CB         4.7330   10.4350  -10.9410 C.3   134  PHE134      0.0534
     99  CG         5.3060    9.0560  -11.2700 C.ar  134  PHE134     -0.0203
    100  CD1        6.5320    8.6990  -10.8040 C.ar  134  PHE134     -0.0042
    101  CD2        4.5870    8.1850  -12.0290 C.ar  134  PHE134     -0.0042
    102  CE1        7.0630    7.4190  -11.1090 C.ar  134  PHE134     -0.0003
    103  CE2        5.1190    6.9040  -12.3350 C.ar  134  PHE134     -0.0003
    104  CZ         6.3450    6.5470  -11.8690 C.ar  134  PHE134     -0.0000
    105  N          9.2800   14.5860  -14.3270 N.3   138  PRO138     -0.2103
    106  CA         8.5860   13.9270  -15.4210 C.3   138  PRO138      0.1489
    107  C          8.9830   12.4520  -15.5120 C.2   138  PRO138      0.2418
    108  O         10.1280   12.1300  -15.8220 O.2   138  PRO138     -0.2734
    109  CB         8.9640   14.7210  -16.6620 C.3   138  PRO138      0.0282
    110  CG        10.2140   15.5030  -16.2910 C.3   138  PRO138      0.0208
    111  CD        10.3630   15.4540  -14.7790 C.3   138  PRO138      0.0893
    112  N          7.9860   11.5710  -15.2280 N.am  139  PRO139     -0.2718
    113  CA         8.2190   10.1370  -15.2740 C.3   139  PRO139      0.1535
    114  C          8.2930    9.6410  -16.7200 C.2   139  PRO139      0.2598
    115  O          8.9540    8.6420  -17.0030 O.2   139  PRO139     -0.2715
    116  CB         7.0660    9.5260  -14.4950 C.3   139  PRO139      0.0310
    117  CG         5.9870   10.5960  -14.4390 C.3   139  PRO139      0.0237
    118  CD         6.6160   11.9150  -14.8570 C.3   139  PRO139      0.0939
    119  N          7.6070   10.3600  -17.5950 N.am  140  VAL140     -0.1964
    120  CA         7.5880   10.0040  -19.0030 C.3   140  VAL140      0.1727
    121  C          6.8880   11.1120  -19.7950 C.2   140  VAL140      0.2616
    122  O          5.9300   10.8510  -20.5210 O.2   140  VAL140     -0.2715
    123  CB         6.9340    8.6330  -19.1890 C.3   140  VAL140      0.0290
    124  CG1        5.4870    8.6450  -18.6940 C.3   140  VAL140      0.0023
    125  CG2        7.0110    8.1820  -20.6490 C.3   140  VAL140      0.0023
    126  N          7.3950   12.3250  -19.6280 N.am  141  PHE141     -0.1960
    127  CA         6.8300   13.4720  -20.3170 C.3   141  PHE141      0.1771
    128  C          6.7670   13.2290  -21.8270 C.2   141  PHE141      0.2620
    129  O          7.7560   12.8260  -22.4360 O.2   141  PHE141     -0.2715
    130  CB         7.7570   14.6590  -20.0430 C.3   141  PHE141      0.0574
    131  CG         9.1000   14.5810  -20.7710 C.ar  141  PHE141     -0.0200
    132  CD1       10.1200   13.8570  -20.2400 C.ar  141  PHE141     -0.0042
    133  CD2        9.2730   15.2370  -21.9500 C.ar  141  PHE141     -0.0042
    134  CE1       11.3670   13.7850  -20.9160 C.ar  141  PHE141     -0.0003
    135  CE2       10.5200   15.1640  -22.6260 C.ar  141  PHE141     -0.0003
    136  CZ        11.5400   14.4400  -22.0950 C.ar  141  PHE141     -0.0000
    137  N          5.5930   13.4830  -22.3860 N.am  142  SER142     -0.1936
    138  CA         5.3870   13.2970  -23.8120 C.3   142  SER142      0.2055
    139  C          5.8670   14.5330  -24.5760 C.2   142  SER142      0.2643
    140  O          6.2320   15.5390  -23.9700 O.2   142  SER142     -0.2714
    141  CB         3.9160   13.0160  -24.1250 C.3   142  SER142      0.2130
    142  OG         3.5100   13.6100  -25.3550 O.3   142  SER142     -0.2179
    143  N          5.8480   14.4180  -25.8960 N.am  143  ARG143     -0.1963
    144  CA         6.2760   15.5130  -26.7490 C.3   143  ARG143      0.1714
    145  C          5.0730   16.1250  -27.4700 C.2   143  ARG143      0.2458
    146  O          4.0410   15.4740  -27.6270 O.2   143  ARG143     -0.2730
    147  CB         7.2950   15.0380  -27.7860 C.3   143  ARG143      0.0347
    148  CG         8.7020   15.5280  -27.4370 C.3   143  ARG143      0.0492
    149  CD         9.5630   15.6640  -28.6930 C.3   143  ARG143      0.2205
    150  NE         9.9760   17.0740  -28.8750 N.pl3 143  ARG143     -0.0865
    151  CZ        10.9120   17.6910  -28.1240 C.cat 143  ARG143      0.5346
    152  NH1       11.5420   17.0270  -27.1310 N.pl3 143  ARG143      0.1354
    153  NH2       11.2020   18.9550  -28.3730 N.pl3 143  ARG143      0.1354
    154  N          5.2500   17.4030  -27.9010 N.am  144  PRO144     -0.2727
    155  CA         4.1920   18.1100  -28.6020 C.3   144  PRO144      0.1402
    156  C          4.0560   17.6070  -30.0400 C.2   144  PRO144      0.2269
    157  O          4.5060   18.2640  -30.9770 O.2   144  PRO144     -0.2865
    158  CB         4.5790   19.5780  -28.5200 C.3   144  PRO144      0.0296
    159  CG         6.0620   19.6000  -28.1880 C.3   144  PRO144      0.0237
    160  CD         6.4590   18.2050  -27.7340 C.3   144  PRO144      0.0939
@<TRIPOS>BOND
     1   157   156    2
     2   156   155    1
     3   150   149    1
     4   150   151    2
     5   149   148    1
     6   155   158    1
     7   155   154    1
     8   158   159    1
     9   153   151    1
    10   159   160    1
    11   151   152    1
    12   154   160    1
    13   154   145   am
    14   147   148    1
    15   147   144    1
    16   146   145    2
    17   145   144    1
    18   144   143    1
    19    86    87    1
    20    89    88    2
    21   143   139   am
    22   142   141    1
    23    81    82    2
    24    81    80    1
    25    88    87    1
    26    84    83    1
    27    87    90    1
    28    83    80    1
    29    83    85    1
    30   139   140    2
    31   139   138    1
    32    80    79    1
    33   141   138    1
    34   138   137    1
    35    90    91    1
    36    91    92    1
    37   135   136   ar
    38   135   133   ar
    39   129   128    2
    40   137   128   am
    41   136   134   ar
    42   133   131   ar
    43   128   127    1
    44    46    45    1
    45    93    92    1
    46    44    45   ar
    47    44    42   ar
    48   134   132   ar
    49   131   132   ar
    50   131   130    1
    51    45    43   ar
    52   125   123    1
    53   122   121    2
    54   127   130    1
    55   127   126    1
    56    42    40   ar
    57   121   126   am
    58   121   120    1
    59    73    72    2
    60    54    52   am
    61    43    41   ar
    62    72    71    1
    63   123   120    1
    64   123   124    1
    65    68    69    1
    66    68    67    1
    67    77    78    1
    68    77    76    1
    69   120   119    1
    70    40    41   ar
    71    40    39    1
    72    50    49    2
    73    15    13    1
    74    69    63    1
    75    67    64    1
    76    71    74    1
    77    71    70    1
    78    76    75    1
    79    74    75    1
    80    52    51    1
    81    52    53    2
    82    51    48    1
    83   119   114   am
    84    39    36    1
    85    14    13    1
    86    49    48    1
    87    49    55   am
    88    47    48    1
    89    47    37   am
    90    13    10    1
    91    63    64    1
    92    63    57   am
    93   115   114    2
    94    64    65    1
    95    36    37    1
    96    36    35    1
    97   114   113    1
    98   109   110    1
    99   109   106    1
   100    34    33    1
   101    62    60    1
   102    56    55    1
   103    56    57    1
   104    56    59    1
   105    60    59    1
   106    37    38    2
   107   110   111    1
   108    57    58    2
   109    33    32   ar
   110    33    31   ar
   111    65    66    2
   112    10     9    1
   113    10    11    1
   114    32    30   ar
   115   108   107    2
   116    59    61    1
   117   107   106    1
   118   107   112   am
   119   106   105    1
   120    31    29   ar
   121   113   112    1
   122   113   116    1
   123   112   118    1
   124    30    28   ar
   125   118   117    1
   126   111   105    1
   127    11    12    2
   128    29    28   ar
   129    28    27    1
   130   116   117    1
   131     4     3    2
   132    27    24    1
   133     8     6   ar
   134    19    18    2
   135     3     2    1
   136     5     2    1
   137     5     6    1
   138    20    21    1
   139    20    22    1
   140    20    17    1
   141     2     1    1
   142    16    17    1
   143     6     7   ar
   144    18    17    1
   145   103   101   ar
   146   103   104   ar
   147    24    23    1
   148    24    25    1
   149    97    96    2
   150   101    99   ar
   151   104   102   ar
   152    25    26    2
   153    99    98    1
   154    99   100   ar
   155   102   100   ar
   156    96    95    1
   157    98    95    1
   158    95    94    1
