@<TRIPOS>MOLECULE
tmp/1m4uA00.pdb
 87 84 0 0 0
SMALL
GASTEIGER

@<TRIPOS>ATOM
      1  N        -46.2760   31.4900   41.1030 N.3    11  CYS11      -0.1221
      2  CA       -45.2300   31.1960   40.1290 C.3    11  CYS11       0.1808
      3  C        -45.4610   29.8310   39.5080 C.2    11  CYS11       0.2601
      4  O        -45.6350   28.8650   40.2210 O.2    11  CYS11      -0.2717
      5  CB       -43.8660   31.2930   40.7760 C.3    11  CYS11       0.0970
      6  SG       -42.5820   30.7460   39.6670 S.3    11  CYS11      -0.0800
      7  N        -45.5950   29.8030   38.1830 N.am   12  LYS12      -0.1965
      8  CA       -45.8090   28.5630   37.4840 C.3    12  LYS12       0.1728
      9  C        -45.3750   28.5920   36.0090 C.2    12  LYS12       0.2616
     10  O        -45.2970   29.6500   35.4360 O.2    12  LYS12      -0.2715
     11  CB       -47.2830   28.1100   37.6840 C.3    12  LYS12       0.0311
     12  CG       -48.1780   28.3660   36.6110 C.3    12  LYS12       0.0038
     13  CD       -49.4760   27.7170   36.9170 C.3    12  LYS12       0.0206
     14  CE       -49.4880   26.2470   36.5300 C.3    12  LYS12       0.1093
     15  NZ       -50.3000   26.2250   35.2960 N.3    12  LYS12      -0.1314
     16  N        -45.1540   27.4140   35.4280 N.am   13  LYS13      -0.1977
     17  CA       -44.8630   27.2230   34.0600 C.3    13  LYS13       0.1596
     18  C        -46.0930   27.3160   33.1750 C.2    13  LYS13       0.2287
     19  O        -47.0800   26.7320   33.5380 O.2    13  LYS13      -0.2864
     20  CB       -44.1990   25.8600   33.8490 C.3    13  LYS13       0.0298
     21  CG       -43.5460   25.8350   32.6400 C.3    13  LYS13       0.0038
     22  CD       -42.8180   24.6420   32.3690 C.3    13  LYS13       0.0206
     23  CE       -43.6690   23.3820   32.4660 C.3    13  LYS13       0.1093
     24  NZ       -42.8340   22.4450   31.8540 N.3    13  LYS13      -0.1314
     25  N        -42.5780   24.1000   46.8360 N.3    51  TYR51      -0.1227
     26  CA       -42.8680   24.0210   45.4530 C.3    51  TYR51       0.1736
     27  C        -42.4230   25.2440   44.6010 C.2    51  TYR51       0.2595
     28  O        -42.3990   25.1820   43.3900 O.2    51  TYR51      -0.2718
     29  CB       -44.4010   23.9450   45.3880 C.3    51  TYR51       0.0548
     30  CG       -44.8490   23.8120   44.0060 C.ar   51  TYR51      -0.0200
     31  CD1      -45.3510   24.8360   43.2910 C.ar   51  TYR51      -0.0009
     32  CD2      -44.7860   22.6050   43.4260 C.ar   51  TYR51      -0.0009
     33  CE1      -45.7710   24.6290   41.9630 C.ar   51  TYR51       0.0417
     34  CE2      -45.2090   22.3910   42.1820 C.ar   51  TYR51       0.0417
     35  CZ       -45.6900   23.3820   41.4770 C.ar   51  TYR51       0.1957
     36  OH       -46.0220   22.9810   40.2070 O.3    51  TYR51      -0.2866
     37  N        -42.2430   26.4020   45.2260 N.am   52  MET52      -0.1965
     38  CA       -41.7550   27.5940   44.5470 C.3    52  MET52       0.1736
     39  C        -40.2150   27.4910   44.1440 C.2    52  MET52       0.2616
     40  O        -39.7090   28.3660   43.5160 O.2    52  MET52      -0.2715
     41  CB       -41.9410   28.7700   45.4700 C.3    52  MET52       0.0427
     42  CG       -43.4100   29.1750   45.7700 C.3    52  MET52       0.0599
     43  SD       -44.3330   29.4640   44.2860 S.3    52  MET52      -0.1393
     44  CE       -44.2790   31.0220   44.2740 C.3    52  MET52       0.0692
     45  N        -39.4980   26.4470   44.5690 N.am   53  ASN53      -0.1972
     46  CA       -38.0860   26.2660   44.2430 C.3    53  ASN53       0.1688
     47  C        -37.2050   27.4980   44.4240 C.2    53  ASN53       0.2292
     48  O        -36.5200   27.8230   43.5280 O.2    53  ASN53      -0.2864
     49  CB       -37.9790   25.8490   42.8050 C.3    53  ASN53       0.1181
     50  CG       -38.7760   24.5700   42.5270 C.2    53  ASN53       0.2629
     51  OD1      -38.7940   23.7750   43.3910 O.2    53  ASN53      -0.2716
     52  ND2      -39.4730   24.4390   41.3560 N.am   53  ASN53      -0.0877
     53  N        -34.8030   25.4450   35.1480 N.3    81  GLN81      -0.1245
     54  CA       -34.1460   24.4530   34.3040 C.3    81  GLN81       0.1566
     55  C        -34.6440   24.6490   32.9490 C.2    81  GLN81       0.2260
     56  O        -35.8490   24.7990   32.7270 O.2    81  GLN81      -0.2867
     57  CB       -34.6140   22.9930   34.6310 C.3    81  GLN81       0.0367
     58  CG       -34.5590   22.5960   36.1090 C.3    81  GLN81       0.0905
     59  CD       -35.1920   21.1600   36.3280 C.2    81  GLN81       0.2608
     60  OE1      -34.9920   20.2410   35.4810 O.2    81  GLN81      -0.2717
     61  NE2      -35.9570   20.9850   37.4570 N.am   81  GLN81      -0.0878
     62  N        -38.1990   24.2110   31.4750 N.3   107  ARG107     -0.1231
     63  CA       -38.6250   22.8970   31.9900 C.3   107  ARG107      0.1694
     64  C        -39.2180   23.0680   33.3600 C.2   107  ARG107      0.2592
     65  O        -40.1260   22.3580   33.6900 O.2   107  ARG107     -0.2718
     66  CB       -37.4500   22.0330   32.1410 C.3   107  ARG107      0.0321
     67  CG       -37.5380   20.5950   31.7140 C.3   107  ARG107      0.0489
     68  CD       -38.2790   20.2620   30.3520 C.3   107  ARG107      0.2205
     69  NE       -38.1590   18.8550   29.9320 N.pl3 107  ARG107     -0.0865
     70  CZ       -37.1110   17.9880   30.1790 C.cat 107  ARG107      0.5346
     71  NH1      -36.0440   18.2880   30.9240 N.pl3 107  ARG107      0.1354
     72  NH2      -37.1540   16.7600   29.6610 N.pl3 107  ARG107      0.1354
     73  N        -38.7880   24.0900   34.0950 N.am  108  ALA108     -0.1966
     74  CA       -39.2910   24.3630   35.3920 C.3   108  ALA108      0.1728
     75  C        -39.0920   25.8100   35.8470 C.2   108  ALA108      0.2616
     76  O        -38.1680   26.4290   35.4260 O.2   108  ALA108     -0.2715
     77  CB       -38.6010   23.4470   36.4480 C.3   108  ALA108      0.0334
     78  N        -39.8820   26.2550   36.8080 N.am  109  CYS109     -0.1954
     79  CA       -39.8210   27.6300   37.2200 C.3   109  CYS109      0.1843
     80  C        -39.5230   27.7090   38.6900 C.2   109  CYS109      0.2626
     81  O        -39.6570   26.7160   39.3910 O.2   109  CYS109     -0.2714
     82  CB       -41.1410   28.2700   36.9160 C.3   109  CYS109      0.0997
     83  SG       -41.4520   28.3890   35.1080 S.3   109  CYS109     -0.0797
     84  N        -39.1040   28.8820   39.1640 N.am  110  GLY110     -0.1954
     85  CA       -38.8200   29.1160   40.5800 C.3   110  GLY110      0.1869
     86  C        -38.7270   30.5770   40.9770 C.2   110  GLY110      0.2309
     87  O        -38.5980   31.4350   40.1150 O.2   110  GLY110     -0.2863
@<TRIPOS>BOND
     1    72    70    1
     2    69    70    2
     3    69    68    1
     4    70    71    1
     5    68    67    1
     6    62    63    1
     7    67    66    1
     8    24    23    1
     9    63    66    1
    10    63    64    1
    11    22    23    1
    12    22    21    1
    13    21    20    1
    14    56    55    2
    15    55    54    1
    16    18    19    2
    17    18    17    1
    18    64    65    2
    19    64    73   am
    20    20    17    1
    21    17    16    1
    22    73    74    1
    23    54    57    1
    24    54    53    1
    25    57    58    1
    26    83    82    1
    27    15    14    1
    28    74    75    1
    29    74    77    1
    30    76    75    2
    31    16     9   am
    32    10     9    2
    33    60    59    2
    34    75    78   am
    35     9     8    1
    36    58    59    1
    37    59    61   am
    38    14    13    1
    39    12    13    1
    40    12    11    1
    41    78    79    1
    42    82    79    1
    43    79    80    1
    44     8    11    1
    45     8     7    1
    46     7     3   am
    47    80    84   am
    48    80    81    2
    49    84    85    1
    50     3     2    1
    51     3     4    2
    52     6     5    1
    53    87    86    2
    54     2     5    1
    55     2     1    1
    56    36    35    1
    57    85    86    1
    58    52    50   am
    59    35    33   ar
    60    35    34   ar
    61    33    31   ar
    62    34    32   ar
    63    50    49    1
    64    50    51    2
    65    49    46    1
    66    31    30   ar
    67    28    27    2
    68    32    30   ar
    69    40    39    2
    70    48    47    2
    71    30    29    1
    72    39    38    1
    73    39    45   am
    74    46    47    1
    75    46    45    1
    76    44    43    1
    77    43    42    1
    78    38    37    1
    79    38    41    1
    80    27    37   am
    81    27    26    1
    82    29    26    1
    83    26    25    1
    84    41    42    1
