@<TRIPOS>MOLECULE
tmp/1m4wA00.pdb
 82 80 0 0 0
SMALL
GASTEIGER

@<TRIPOS>ATOM
      1  N         -5.5600   17.8410   17.0800 N.3     5  THR5       -0.1203
      2  CA        -4.1080   17.9640   16.9880 C.3     5  THR5        0.1994
      3  C         -3.4200   16.6760   17.4450 C.2     5  THR5        0.2618
      4  O         -2.1930   16.5730   17.4150 O.2     5  THR5       -0.2717
      5  CB        -3.5740   19.1230   17.8600 C.3     5  THR5        0.1784
      6  OG1       -3.9540   18.9040   19.2250 O.3     5  THR5       -0.2211
      7  CG2       -4.1270   20.4650   17.3830 C.3     5  THR5        0.0376
      8  N         -4.2190   15.7020   17.8720 N.am    6  GLN6       -0.1965
      9  CA        -3.7100   14.4110   18.3340 C.3     6  GLN6        0.1733
     10  C         -4.3060   13.2930   17.4790 C.2     6  GLN6        0.2616
     11  O         -5.4080   13.4430   16.9460 O.2     6  GLN6       -0.2715
     12  CB        -4.1020   14.1930   19.7940 C.3     6  GLN6        0.0408
     13  CG        -3.7170   15.3430   20.7100 C.3     6  GLN6        0.0908
     14  CD        -2.2370   15.3680   21.0200 C.2     6  GLN6        0.2608
     15  OE1       -1.6520   16.4310   21.2080 O.2     6  GLN6       -0.2717
     16  NE2       -1.6250   14.1910   21.0890 N.am    6  GLN6       -0.0878
     17  N         -3.5820   12.1840   17.3330 N.am    7  ASN7       -0.1972
     18  CA        -4.0950   11.0600   16.5540 C.3     7  ASN7        0.1688
     19  C         -5.5160   10.7890   17.0180 C.2     7  ASN7        0.2292
     20  O         -5.7530   10.5770   18.2060 O.2     7  ASN7       -0.2864
     21  CB        -3.2450    9.8140   16.7660 C.3     7  ASN7        0.1181
     22  CG        -1.8500    9.9700   16.2160 C.2     7  ASN7        0.2629
     23  OD1       -1.6690   10.5330   15.1400 O.2     7  ASN7       -0.2716
     24  ND2       -0.8590    9.4650   16.9400 N.am    7  ASN7       -0.0877
     25  N         -4.0140   11.8220   11.6760 N.3    20  TRP20      -0.1227
     26  CA        -2.7870   11.1570   12.0900 C.3    20  TRP20       0.1737
     27  C         -1.6000   11.9850   11.6470 C.2    20  TRP20       0.2596
     28  O         -1.5990   12.5380   10.5410 O.2    20  TRP20      -0.2718
     29  CB        -2.6710    9.7600   11.4570 C.3    20  TRP20       0.0564
     30  CG        -1.3800    9.0590   11.8130 C.ar   20  TRP20       0.0003
     31  CD1       -1.1570    8.2320   12.8810 C.ar   20  TRP20       0.0946
     32  CD2       -0.1150    9.2040   11.1480 C.ar   20  TRP20       0.0152
     33  NE1        0.1730    7.8580   12.9240 N.ar   20  TRP20      -0.2442
     34  CE2        0.8320    8.4410   11.8730 C.ar   20  TRP20       0.0810
     35  CE3        0.3110    9.9070   10.0120 C.ar   20  TRP20       0.0012
     36  CZ2        2.1760    8.3630   11.4980 C.ar   20  TRP20       0.0191
     37  CZ3        1.6530    9.8260    9.6400 C.ar   20  TRP20       0.0001
     38  CH2        2.5660    9.0600   10.3840 C.ar   20  TRP20       0.0015
     39  N         -0.5950   12.0670   12.5130 N.am   21  THR21      -0.1939
     40  CA         0.6260   12.7960   12.1990 C.3    21  THR21       0.2028
     41  C          1.7720   12.2810   13.0650 C.2    21  THR21       0.2642
     42  O          1.5570   11.8230   14.1810 O.2    21  THR21      -0.2714
     43  CB         0.4750   14.3150   12.4400 C.3    21  THR21       0.1808
     44  OG1        1.6630   14.9820   11.9960 O.3    21  THR21      -0.2208
     45  CG2        0.2710   14.6160   13.9270 C.3    21  THR21       0.0379
     46  N          2.9870   12.3440   12.5370 N.am   22  ASP22      -0.1971
     47  CA         4.1590   11.9160   13.2870 C.3    22  ASP22       0.1709
     48  C          4.8880   13.1700   13.7720 C.2    22  ASP22       0.2293
     49  O          6.0140   13.0950   14.2620 O.2    22  ASP22      -0.2864
     50  CB         5.0890   11.0850   12.3950 C.3    22  ASP22       0.1436
     51  CG         5.6770   11.8880   11.2470 C.2    22  ASP22       0.3671
     52  OD1        5.4100   13.1030   11.1400 O.co2  22  ASP22      -0.2456
     53  OD2        6.4200   11.3010   10.4440 O.co2  22  ASP22      -0.2456
     54  N          3.7440   16.1760   16.1620 N.3    24  PRO24      -0.2116
     55  CA         2.8850   16.9220   17.0870 C.3    24  PRO24       0.1372
     56  C          3.1490   18.4230   17.1040 C.2    24  PRO24       0.2244
     57  O          4.2970   18.8610   17.1510 O.2    24  PRO24      -0.2868
     58  CB         3.2010   16.2810   18.4330 C.3    24  PRO24       0.0268
     59  CG         3.4730   14.8580   18.0560 C.3    24  PRO24       0.0207
     60  CD         4.3570   15.0190   16.8410 C.3    24  PRO24       0.0892
     61  N          8.5490   -0.1960    6.0950 N.3   123  ASN123     -0.1240
     62  CA         8.4990   -0.0150    7.5420 C.3   123  ASN123      0.1653
     63  C          7.8940    1.3290    7.9270 C.2   123  ASN123      0.2266
     64  O          8.5040    2.1260    8.6410 O.2   123  ASN123     -0.2867
     65  CB         9.9190   -0.1500    8.0980 C.3   123  ASN123      0.1155
     66  CG        10.5700   -1.4660    7.6960 C.2   123  ASN123      0.2627
     67  OD1       10.1390   -2.5350    8.1240 O.2   123  ASN123     -0.2716
     68  ND2       11.5990   -1.3930    6.8560 N.am  123  ASN123     -0.0877
     69  N          4.1350    3.6110    9.0960 N.3   125  PRO125     -0.2116
     70  CA         2.9120    3.4850    9.8950 C.3   125  PRO125      0.1372
     71  C          1.7200    3.1010    9.0170 C.2   125  PRO125      0.2244
     72  O          1.6050    3.5700    7.8880 O.2   125  PRO125     -0.2868
     73  CB         2.7640    4.8750   10.5180 C.3   125  PRO125      0.0268
     74  CG         3.3690    5.7740    9.4780 C.3   125  PRO125      0.0207
     75  CD         4.6090    5.0070    9.0670 C.3   125  PRO125      0.0892
     76  N          3.4780   -0.7030   12.2530 N.3   130  THR130     -0.1218
     77  CA         4.6440   -0.5330   11.3850 C.3   130  THR130      0.1862
     78  C          4.7150   -1.6680   10.3670 C.2   130  THR130      0.2287
     79  O          4.8860   -2.8280   10.7330 O.2   130  THR130     -0.2866
     80  CB         5.9460   -0.4970   12.2140 C.3   130  THR130      0.1770
     81  OG1        5.8930    0.6050   13.1280 O.3   130  THR130     -0.2211
     82  CG2        7.1640   -0.3350   11.3030 C.3   130  THR130      0.0375
@<TRIPOS>BOND
     1    61    62    1
     2    68    66   am
     3    62    63    1
     4    62    65    1
     5    66    65    1
     6    66    67    2
     7    72    71    2
     8    63    64    2
     9    71    70    1
    10    75    69    1
    11    75    74    1
    12    69    70    1
    13    74    73    1
    14    37    35   ar
    15    37    38   ar
    16    70    73    1
    17    35    32   ar
    18    78    79    2
    19    78    77    1
    20    38    36   ar
    21    53    51   ar
    22    28    27    2
    23    52    51   ar
    24    32    30   ar
    25    32    34   ar
    26    51    50    1
    27    82    80    1
    28    77    80    1
    29    77    76    1
    30    29    30    1
    31    29    26    1
    32    36    34   ar
    33    27    26    1
    34    27    39   am
    35    25    26    1
    36    30    31   ar
    37    34    33   ar
    38    44    43    1
    39    40    43    1
    40    40    39    1
    41    40    41    1
    42    80    81    1
    43    50    47    1
    44    43    45    1
    45    46    41   am
    46    46    47    1
    47    31    33   ar
    48    41    42    2
    49    47    48    1
    50    48    49    2
    51    23    22    2
    52    54    60    1
    53    54    55    1
    54    22    21    1
    55    22    24   am
    56    18    21    1
    57    18    19    1
    58    18    17    1
    59    60    59    1
    60    11    10    2
    61     2     1    1
    62     2     3    1
    63     2     5    1
    64    19    20    2
    65    55    56    1
    66    55    58    1
    67    56    57    2
    68    17    10   am
    69     7     5    1
    70     4     3    2
    71     3     8   am
    72    10     9    1
    73     5     6    1
    74     8     9    1
    75    59    58    1
    76     9    12    1
    77    12    13    1
    78    13    14    1
    79    14    16   am
    80    14    15    2
