@<TRIPOS>MOLECULE
tmp/1m51A00.pdb
 155 153 0 0 0
SMALL
GASTEIGER

@<TRIPOS>ATOM
      1  N         44.2730   35.0090   33.0310 N.3   276  ALA276     -0.1231
      2  CA        44.0960   36.4230   33.3750 C.3   276  ALA276      0.1694
      3  C         43.1840   37.1960   32.4170 C.2   276  ALA276      0.2592
      4  O         43.3440   38.4240   32.2280 O.2   276  ALA276     -0.2718
      5  CB        45.4610   37.1090   33.5080 C.3   276  ALA276      0.0304
      6  N         42.2290   36.4920   31.8070 N.am  277  CYS277     -0.1956
      7  CA        41.2530   37.1470   30.9380 C.3   277  CYS277      0.1843
      8  C         39.8290   37.1310   31.5180 C.2   277  CYS277      0.2626
      9  O         38.9020   37.6540   30.9100 O.2   277  CYS277     -0.2714
     10  CB        41.2720   36.5230   29.5390 C.3   277  CYS277      0.0997
     11  SG        42.7660   36.8950   28.5810 S.3   277  CYS277     -0.0797
     12  N         39.6660   36.4980   32.6740 N.am  278  GLY278     -0.1954
     13  CA        38.3800   36.4220   33.3370 C.3   278  GLY278      0.1869
     14  C         37.3860   35.4130   32.7680 C.2   278  GLY278      0.2309
     15  O         36.1730   35.6780   32.8160 O.2   278  GLY278     -0.2863
     16  N         34.3950   34.8050   34.9430 N.3   281  ASN281     -0.1225
     17  CA        33.5840   36.0120   35.0390 C.3   281  ASN281      0.1785
     18  C         32.6760   36.1330   33.8300 C.2   281  ASN281      0.2597
     19  O         31.5540   36.5980   33.9570 O.2   281  ASN281     -0.2718
     20  CB        34.4640   37.2500   35.2350 C.3   281  ASN281      0.1169
     21  CG        35.2470   37.1790   36.5210 C.2   281  ASN281      0.2627
     22  OD1       34.7370   36.6840   37.5290 O.2   281  ASN281     -0.2716
     23  ND2       36.4840   37.6250   36.5030 N.am  281  ASN281     -0.0877
     24  N         33.1470   35.6840   32.6660 N.am  282  LEU282     -0.1980
     25  CA        32.2900   35.7090   31.4840 C.3   282  LEU282      0.1596
     26  C         31.3070   34.5230   31.4620 C.2   282  LEU282      0.2287
     27  O         30.1580   34.6640   31.0270 O.2   282  LEU282     -0.2864
     28  CB        33.1170   35.7620   30.1980 C.3   282  LEU282      0.0297
     29  CG        32.3600   35.6780   28.8650 C.3   282  LEU282      0.0022
     30  CD1       31.4050   36.8700   28.6570 C.3   282  LEU282      0.0001
     31  CD2       33.3600   35.6060   27.7320 C.3   282  LEU282      0.0001
     32  N         28.5460   35.6290   33.7630 N.3   285  MET285     -0.1245
     33  CA        28.3230   37.0680   33.7380 C.3   285  MET285      0.1570
     34  C         26.8460   37.4060   34.0090 C.2   285  MET285      0.2261
     35  O         25.9490   36.7240   33.5060 O.2   285  MET285     -0.2867
     36  CB        28.7510   37.6230   32.3750 C.3   285  MET285      0.0387
     37  CG        28.1630   38.9890   32.0270 C.3   285  MET285      0.0595
     38  SD        28.6600   39.5820   30.4170 S.3   285  MET285     -0.1393
     39  CE        27.6430   38.6940   29.4000 C.3   285  MET285      0.0692
     40  N         39.6510   31.0110   39.6580 N.3   324  VAL324     -0.1245
     41  CA        40.6520   31.9030   40.2240 C.3   324  VAL324      0.1561
     42  C         39.9350   32.8040   41.2240 C.2   324  VAL324      0.2260
     43  O         38.9110   33.4120   40.8850 O.2   324  VAL324     -0.2867
     44  CB        41.3490   32.7440   39.1250 C.3   324  VAL324      0.0252
     45  CG1       42.1160   33.9630   39.7300 C.3   324  VAL324      0.0019
     46  CG2       42.2870   31.8610   38.2850 C.3   324  VAL324      0.0019
     47  N         41.2610   35.6170   43.3870 N.3   326  PRO326     -0.2102
     48  CA        41.5420   37.0640   43.3750 C.3   326  PRO326      0.1504
     49  C         40.8360   37.7560   42.2250 C.2   326  PRO326      0.2576
     50  O         40.7080   37.1690   41.1410 O.2   326  PRO326     -0.2718
     51  CB        43.0640   37.1320   43.1990 C.3   326  PRO326      0.0282
     52  CG        43.5510   35.8380   43.7660 C.3   326  PRO326      0.0208
     53  CD        42.5060   34.8290   43.3400 C.3   326  PRO326      0.0893
     54  N         40.3460   38.9670   42.4700 N.am  327  GLY327     -0.1957
     55  CA        39.5470   39.6790   41.4820 C.3   327  GLY327      0.1869
     56  C         38.0580   39.3520   41.5170 C.2   327  GLY327      0.2309
     57  O         37.2800   39.9680   40.8010 O.2   327  GLY327     -0.2863
     58  N         32.4710   42.3550   40.0830 N.3   332  THR332     -0.1218
     59  CA        33.0370   41.6570   38.9280 C.3   332  THR332      0.1862
     60  C         32.3600   40.3160   38.6000 C.2   332  THR332      0.2287
     61  O         32.4140   39.8720   37.4540 O.2   332  THR332     -0.2866
     62  CB        34.5420   41.4230   39.0970 C.3   332  THR332      0.1770
     63  OG1       34.7670   40.6030   40.2510 O.3   332  THR332     -0.2211
     64  CG2       35.2920   42.7410   39.3730 C.3   332  THR332      0.0375
     65  N         44.3760   39.0720   26.1750 N.3   425  ARG425     -0.1245
     66  CA        44.6270   40.3250   26.8360 C.3   425  ARG425      0.1563
     67  C         45.5970   41.1070   25.9540 C.2   425  ARG425      0.2260
     68  O         46.7610   40.7300   25.8100 O.2   425  ARG425     -0.2867
     69  CB        45.1920   40.0590   28.2240 C.3   425  ARG425      0.0307
     70  CG        45.1780   41.2520   29.1520 C.3   425  ARG425      0.0489
     71  CD        45.9260   41.0230   30.4410 C.3   425  ARG425      0.2205
     72  NE        45.0580   40.5360   31.5110 N.pl3 425  ARG425     -0.0865
     73  CZ        44.4960   41.3170   32.4430 C.cat 425  ARG425      0.5346
     74  NH1       44.6900   42.6300   32.4310 N.pl3 425  ARG425      0.1354
     75  NH2       43.7320   40.7820   33.3870 N.pl3 425  ARG425      0.1354
     76  N         38.8740   42.5150   25.8640 N.3   497  TRP497     -0.1227
     77  CA        38.3030   43.3720   26.8980 C.3   497  TRP497      0.1737
     78  C         39.3320   44.3960   27.3950 C.2   497  TRP497      0.2595
     79  O         38.9820   45.2990   28.1480 O.2   497  TRP497     -0.2718
     80  CB        37.8510   42.5450   28.1130 C.3   497  TRP497      0.0564
     81  CG        37.0250   41.2980   27.8420 C.ar  497  TRP497      0.0003
     82  CD1       37.2000   40.0660   28.4100 C.ar  497  TRP497      0.0946
     83  CD2       35.8850   41.1780   26.9740 C.ar  497  TRP497      0.0152
     84  NE1       36.2670   39.1810   27.9200 N.ar  497  TRP497     -0.2442
     85  CE2       35.4380   39.8420   27.0490 C.ar  497  TRP497      0.0810
     86  CE3       35.1950   42.0660   26.1350 C.ar  497  TRP497      0.0012
     87  CZ2       34.3320   39.3770   26.3280 C.ar  497  TRP497      0.0191
     88  CZ3       34.1090   41.6040   25.4130 C.ar  497  TRP497      0.0001
     89  CH2       33.6860   40.2680   25.5170 C.ar  497  TRP497      0.0015
     90  N         40.5920   44.2600   26.9910 N.am  498  PHE498     -0.1976
     91  CA        41.6770   44.8530   27.7740 C.3   498  PHE498      0.1639
     92  C         42.4920   45.9530   27.0720 C.2   498  PHE498      0.2290
     93  O         43.5550   46.3510   27.5510 O.2   498  PHE498     -0.2864
     94  CB        42.5840   43.7410   28.3250 C.3   498  PHE498      0.0560
     95  CG        41.8490   42.7040   29.1530 C.ar  498  PHE498     -0.0200
     96  CD1       41.3770   41.5280   28.5670 C.ar  498  PHE498     -0.0042
     97  CD2       41.6330   42.9040   30.5060 C.ar  498  PHE498     -0.0042
     98  CE1       40.6890   40.5460   29.3260 C.ar  498  PHE498     -0.0003
     99  CE2       40.9450   41.9320   31.2820 C.ar  498  PHE498     -0.0003
    100  CZ        40.4720   40.7630   30.6870 C.ar  498  PHE498     -0.0000
    101  N         41.8420   51.4120   30.7690 N.3   506  PHE506     -0.1241
    102  CA        41.0510   50.5190   29.9400 C.3   506  PHE506      0.1605
    103  C         40.0430   51.2980   29.1170 C.2   506  PHE506      0.2264
    104  O         39.3490   52.1530   29.6430 O.2   506  PHE506     -0.2867
    105  CB        40.3950   49.4600   30.8200 C.3   506  PHE506      0.0534
    106  CG        41.3680   48.4520   31.3630 C.ar  506  PHE506     -0.0203
    107  CD1       41.6650   48.4090   32.7310 C.ar  506  PHE506     -0.0042
    108  CD2       41.9910   47.5460   30.5130 C.ar  506  PHE506     -0.0042
    109  CE1       42.5730   47.4840   33.2460 C.ar  506  PHE506     -0.0003
    110  CE2       42.8860   46.6080   31.0080 C.ar  506  PHE506     -0.0003
    111  CZ        43.1850   46.5800   32.3940 C.ar  506  PHE506     -0.0000
    112  N         37.3850   49.9520   27.6060 N.3   508  TRP508     -0.1228
    113  CA        36.0690   49.3200   27.7030 C.3   508  TRP508      0.1722
    114  C         35.7770   48.9390   29.1440 C.2   508  TRP508      0.2437
    115  O         36.6040   48.3030   29.7900 O.2   508  TRP508     -0.2733
    116  CB        36.0260   48.0810   26.8040 C.3   508  TRP508      0.0563
    117  CG        34.6830   47.3740   26.7070 C.ar  508  TRP508      0.0003
    118  CD1       34.3750   46.1260   27.1820 C.ar  508  TRP508      0.0946
    119  CD2       33.4890   47.8710   26.0890 C.ar  508  TRP508      0.0152
    120  NE1       33.0680   45.8180   26.8860 N.ar  508  TRP508     -0.2442
    121  CE2       32.5030   46.8690   26.2090 C.ar  508  TRP508      0.0810
    122  CE3       33.1540   49.0690   25.4250 C.ar  508  TRP508      0.0012
    123  CZ2       31.2040   47.0270   25.7070 C.ar  508  TRP508      0.0191
    124  CZ3       31.8570   49.2260   24.9250 C.ar  508  TRP508      0.0001
    125  CH2       30.9040   48.2070   25.0610 C.ar  508  TRP508      0.0015
    126  N         34.6070   49.3150   29.6620 N.am  509  PRO509     -0.2718
    127  CA        34.2490   48.9710   31.0490 C.3   509  PRO509      0.1535
    128  C         34.0920   47.4530   31.3240 C.2   509  PRO509      0.2599
    129  O         34.3290   47.0090   32.4550 O.2   509  PRO509     -0.2715
    130  CB        32.9440   49.7510   31.2970 C.3   509  PRO509      0.0310
    131  CG        32.4220   50.1280   29.9700 C.3   509  PRO509      0.0237
    132  CD        33.5630   50.1120   28.9880 C.3   509  PRO509      0.0939
    133  N         33.7010   46.6730   30.3230 N.am  510  GLY510     -0.1941
    134  CA        33.7010   45.2240   30.4570 C.3   510  GLY510      0.2014
    135  C         32.7130   44.7110   31.4900 C.2   510  GLY510      0.2638
    136  O         31.6890   45.3460   31.7500 O.2   510  GLY510     -0.2714
    137  N         33.0350   43.5670   32.0830 N.am  511  PHE511     -0.1973
    138  CA        32.1440   42.8580   33.0100 C.3   511  PHE511      0.1639
    139  C         30.7310   42.7330   32.4440 C.2   511  PHE511      0.2290
    140  O         30.5640   42.2400   31.3270 O.2   511  PHE511     -0.2864
    141  CB        32.2420   43.4330   34.4560 C.3   511  PHE511      0.0560
    142  CG        33.6640   43.4580   34.9760 C.ar  511  PHE511     -0.0200
    143  CD1       34.4470   44.6130   34.8680 C.ar  511  PHE511     -0.0042
    144  CD2       34.2370   42.3150   35.5020 C.ar  511  PHE511     -0.0042
    145  CE1       35.7710   44.6240   35.2890 C.ar  511  PHE511     -0.0003
    146  CE2       35.5640   42.3100   35.9080 C.ar  511  PHE511     -0.0003
    147  CZ        36.3280   43.4770   35.8140 C.ar  511  PHE511     -0.0000
    148  N         29.8760   43.6270   28.8510 N.3   514  ASN514     -0.1240
    149  CA        30.2370   42.7150   27.7540 C.3   514  ASN514      0.1653
    150  C         29.0130   42.1150   27.0610 C.2   514  ASN514      0.2266
    151  O         29.1120   41.6300   25.9290 O.2   514  ASN514     -0.2867
    152  CB        31.2090   41.6270   28.2110 C.3   514  ASN514      0.1155
    153  CG        32.6240   42.1710   28.4710 C.2   514  ASN514      0.2627
    154  OD1       33.0210   43.2320   27.9380 O.2   514  ASN514     -0.2716
    155  ND2       33.3850   41.4510   29.2940 N.am  514  ASN514     -0.0877
@<TRIPOS>BOND
     1   124   125   ar
     2   124   122   ar
     3   125   123   ar
     4    88    89   ar
     5    88    86   ar
     6   122   119   ar
     7    89    87   ar
     8   123   121   ar
     9    68    67    2
    10    76    77    1
    11   151   150    2
    12    67    66    1
    13   119   121   ar
    14   119   117   ar
    15    86    83   ar
    16    65    66    1
    17   121   120   ar
    18    87    85   ar
    19   117   116    1
    20   117   118   ar
    21   116   113    1
    22    66    69    1
    23   120   118   ar
    24    77    78    1
    25    77    80    1
    26    83    85   ar
    27    83    81   ar
    28    90    78   am
    29    90    91    1
    30    85    84   ar
    31   150   149    1
    32    92    93    2
    33    92    91    1
    34    78    79    2
    35   112   113    1
    36   113   114    1
    37    31    29    1
    38   149   152    1
    39   149   148    1
    40    91    94    1
    41    81    80    1
    42    81    82   ar
    43    84    82   ar
    44   154   153    2
    45   152   153    1
    46    69    70    1
    47    94    95    1
    48   153   155   am
    49    96    95   ar
    50    96    98   ar
    51    11    10    1
    52    30    29    1
    53    29    28    1
    54   132   126    1
    55   132   131    1
    56   103   104    2
    57   103   102    1
    58   114   126   am
    59   114   115    2
    60    70    71    1
    61    95    97   ar
    62    98   100   ar
    63    39    38    1
    64    10     7    1
    65   126   127    1
    66   102   101    1
    67   102   105    1
    68   131   130    1
    69    28    25    1
    70   133   134    1
    71   133   128   am
    72    38    37    1
    73    71    72    1
    74   134   135    1
    75    97    99   ar
    76   108   110   ar
    77   108   106   ar
    78   100    99   ar
    79   105   106    1
    80     9     8    2
    81     7     8    1
    82     7     6    1
    83   110   111   ar
    84    27    26    2
    85   127   130    1
    86   127   128    1
    87   128   129    2
    88   140   139    2
    89   106   107   ar
    90    26    25    1
    91    25    24    1
    92   135   136    2
    93   135   137   am
    94    72    73    2
    95     8    12   am
    96     6     3   am
    97    37    36    1
    98   137   138    1
    99     4     3    2
   100    36    33    1
   101   111   109   ar
   102     3     2    1
   103    74    73    1
   104    73    75    1
   105   139   138    1
   106    24    18   am
   107    12    13    1
   108   107   109   ar
   109    14    15    2
   110    14    13    1
   111   138   141    1
   112     1     2    1
   113     2     5    1
   114    35    34    2
   115    33    32    1
   116    33    34    1
   117    18    19    2
   118    18    17    1
   119   141   142    1
   120   143   142   ar
   121   143   145   ar
   122    16    17    1
   123   142   144   ar
   124    17    20    1
   125    20    21    1
   126   145   147   ar
   127   144   146   ar
   128   147   146   ar
   129    23    21   am
   130    21    22    2
   131    61    60    2
   132    46    44    1
   133    60    59    1
   134    59    62    1
   135    59    58    1
   136    62    64    1
   137    62    63    1
   138    44    45    1
   139    44    41    1
   140    40    41    1
   141    41    42    1
   142    57    56    2
   143    43    42    2
   144    50    49    2
   145    55    56    1
   146    55    54    1
   147    49    54   am
   148    49    48    1
   149    51    48    1
   150    51    52    1
   151    53    47    1
   152    53    52    1
   153    48    47    1
