@<TRIPOS>MOLECULE
tmp/1m52A00.pdb
 190 182 0 0 0
SMALL
GASTEIGER

@<TRIPOS>ATOM
      1  N         47.7470   30.9550    4.2670 N.3    17  LEU17      -0.1231
      2  CA        46.5840   31.8370    4.1800 C.3    17  LEU17       0.1693
      3  C         46.9280   33.3170    4.0570 C.2    17  LEU17       0.2592
      4  O         47.9570   33.7790    4.5460 O.2    17  LEU17      -0.2718
      5  CB        45.6780   31.6340    5.3940 C.3    17  LEU17       0.0284
      6  CG        44.8450   30.3550    5.4200 C.3    17  LEU17       0.0019
      7  CD1       44.1970   30.2070    6.7770 C.3    17  LEU17       0.0001
      8  CD2       43.8030   30.4050    4.3130 C.3    17  LEU17       0.0001
      9  N         46.0430   34.0530    3.3960 N.am   18  GLY18      -0.1957
     10  CA        46.2370   35.4800    3.2230 C.3    18  GLY18       0.1869
     11  C         47.5280   35.9030    2.5470 C.2    18  GLY18       0.2309
     12  O         48.0270   37.0030    2.7930 O.2    18  GLY18      -0.2863
     13  N         49.6020   37.6400    7.1850 N.3    22  TYR22      -0.1241
     14  CA        49.3440   37.3810    8.5970 C.3    22  TYR22       0.1605
     15  C         50.4590   36.5380    9.2080 C.2    22  TYR22       0.2264
     16  O         50.3960   36.1570   10.3780 O.2    22  TYR22      -0.2867
     17  CB        48.0110   36.6570    8.7860 C.3    22  TYR22       0.0534
     18  CG        46.8200   37.3960    8.2350 C.ar   22  TYR22      -0.0201
     19  CD1       46.3350   37.1210    6.9560 C.ar   22  TYR22      -0.0009
     20  CD2       46.1840   38.3880    8.9830 C.ar   22  TYR22      -0.0009
     21  CE1       45.2430   37.8210    6.4330 C.ar   22  TYR22       0.0417
     22  CE2       45.0950   39.0970    8.4670 C.ar   22  TYR22       0.0417
     23  CZ        44.6320   38.8110    7.1910 C.ar   22  TYR22       0.1957
     24  OH        43.5920   39.5380    6.6530 O.3    22  TYR22      -0.2866
     25  N         50.5660   31.2970    8.7110 N.3    25  VAL25      -0.1245
     26  CA        49.2410   30.7570    8.9770 C.3    25  VAL25       0.1561
     27  C         48.8480   29.8810    7.7960 C.2    25  VAL25       0.2260
     28  O         49.0350   30.2570    6.6420 O.2    25  VAL25      -0.2867
     29  CB        48.1910   31.8820    9.1690 C.3    25  VAL25       0.0252
     30  CG1       46.8490   31.2800    9.5740 C.3    25  VAL25       0.0019
     31  CG2       48.6660   32.8660   10.2370 C.3    25  VAL25       0.0019
     32  N         42.5860   26.6140   11.2700 N.3    38  ALA38      -0.1231
     33  CA        43.6110   27.5870   10.9180 C.3    38  ALA38       0.1694
     34  C         44.8070   27.2910   11.8250 C.2    38  ALA38       0.2592
     35  O         44.6410   27.0750   13.0370 O.2    38  ALA38      -0.2718
     36  CB        43.1020   28.9960   11.1540 C.3    38  ALA38       0.0304
     37  N         46.0050   27.2720   11.2480 N.am   39  VAL39      -0.1966
     38  CA        47.1840   26.9760   12.0340 C.3    39  VAL39       0.1727
     39  C         48.2910   28.0090   11.9150 C.2    39  VAL39       0.2616
     40  O         48.8670   28.2050   10.8450 O.2    39  VAL39      -0.2715
     41  CB        47.7720   25.5940   11.6560 C.3    39  VAL39       0.0290
     42  CG1       48.8720   25.2090   12.6400 C.3    39  VAL39       0.0023
     43  CG2       46.6670   24.5510   11.6440 C.3    39  VAL39       0.0023
     44  N         48.5820   28.6770   13.0290 N.am   40  LYS40      -0.1977
     45  CA        49.6610   29.6550   13.0630 C.3    40  LYS40       0.1596
     46  C         50.9170   28.8760   13.4340 C.2    40  LYS40       0.2287
     47  O         50.9280   28.1020   14.4060 O.2    40  LYS40      -0.2864
     48  CB        49.4230   30.7390   14.1110 C.3    40  LYS40       0.0298
     49  CG        50.4940   31.8150   14.0720 C.3    40  LYS40       0.0038
     50  CD        50.1850   32.9560   15.0160 C.3    40  LYS40       0.0206
     51  CE        50.4010   34.3070   14.3230 C.3    40  LYS40       0.1093
     52  NZ        50.0570   35.4650   15.1920 N.3    40  LYS40      -0.1314
     53  N         50.9400   35.0920   22.9120 N.3    55  GLU55      -0.1245
     54  CA        49.7380   35.1890   22.0930 C.3    55  GLU55       0.1567
     55  C         48.8370   33.9980   22.4230 C.2    55  GLU55       0.2260
     56  O         47.6480   34.1540   22.7260 O.2    55  GLU55      -0.2867
     57  CB        50.1090   35.1740   20.6060 C.3    55  GLU55       0.0388
     58  CG        48.9520   35.4660   19.6660 C.3    55  GLU55       0.1160
     59  CD        49.3690   35.4430   18.2100 C.2    55  GLU55       0.3649
     60  OE1       50.2630   36.2280   17.8270 O.co2  55  GLU55      -0.2457
     61  OE2       48.8040   34.6360   17.4440 O.co2  55  GLU55      -0.2457
     62  N         45.1480   33.8920   24.2350 N.3    59  MET59      -0.1245
     63  CA        44.0480   33.2450   23.5470 C.3    59  MET59       0.1570
     64  C         43.2990   32.1760   24.3320 C.2    59  MET59       0.2261
     65  O         42.1650   31.8230   23.9890 O.2    59  MET59      -0.2867
     66  CB        44.5420   32.6760   22.2250 C.3    59  MET59       0.0387
     67  CG        44.8150   33.7660   21.2170 C.3    59  MET59       0.0595
     68  SD        45.0620   33.1370   19.5720 S.3    59  MET59      -0.1393
     69  CE        43.3490   32.9890   19.0250 C.3    59  MET59       0.0692
     70  N         37.9580   35.3130   17.2550 N.3    68  VAL68      -0.1245
     71  CA        38.3530   33.9960   16.7630 C.3    68  VAL68       0.1561
     72  C         38.6770   33.0540   17.9140 C.2    68  VAL68       0.2260
     73  O         39.4070   33.4060   18.8380 O.2    68  VAL68      -0.2867
     74  CB        39.5380   34.1080   15.8050 C.3    68  VAL68       0.0252
     75  CG1       40.0390   32.7260   15.4190 C.3    68  VAL68       0.0019
     76  CG2       39.1040   34.8850   14.5680 C.3    68  VAL68       0.0019
     77  N         49.4910   27.0650   16.9550 N.3    82  ILE82      -0.1245
     78  CA        48.3760   27.7270   17.6130 C.3    82  ILE82       0.1561
     79  C         47.2700   27.3530   16.6380 C.2    82  ILE82       0.2260
     80  O         47.3220   27.6950   15.4560 O.2    82  ILE82      -0.2867
     81  CB        48.5200   29.2460   17.6400 C.3    82  ILE82       0.0252
     82  CG1       49.5440   29.6830   18.7000 C.3    82  ILE82       0.0019
     83  CG2       47.1700   29.8440   17.9470 C.3    82  ILE82       0.0019
     84  CD1       49.6610   31.1950   18.8420 C.3    82  ILE82       0.0001
     85  N         43.2810   27.4180   15.6030 N.3    84  THR84      -0.1203
     86  CA        42.0380   28.1520   15.7760 C.3    84  THR84       0.1994
     87  C         40.9650   27.7070   14.7830 C.2    84  THR84       0.2618
     88  O         41.2500   26.9950   13.8210 O.2    84  THR84      -0.2717
     89  CB        42.2740   29.6650   15.5730 C.3    84  THR84       0.1784
     90  OG1       42.6230   29.9080   14.2060 O.3    84  THR84      -0.2211
     91  CG2       43.4140   30.1590   16.4580 C.3    84  THR84       0.0376
     92  N         39.7280   28.1330   15.0230 N.am   85  GLU85      -0.1965
     93  CA        38.6350   27.7990   14.1210 C.3    85  GLU85       0.1733
     94  C         38.9750   28.4270   12.7800 C.2    85  GLU85       0.2616
     95  O         39.7580   29.3730   12.7070 O.2    85  GLU85      -0.2715
     96  CB        37.3140   28.3710   14.6300 C.3    85  GLU85       0.0429
     97  CG        37.3390   29.8730   14.8440 C.3    85  GLU85       0.1163
     98  CD        36.0060   30.4140   15.3220 C.2    85  GLU85       0.3649
     99  OE1       35.9940   31.5100   15.9190 O.co2  85  GLU85      -0.2457
    100  OE2       34.9680   29.7510   15.0920 O.co2  85  GLU85      -0.2457
    101  N         38.3880   27.9020   11.7170 N.am   86  PHE86      -0.1960
    102  CA        38.6580   28.4260   10.3890 C.3    86  PHE86       0.1771
    103  C         37.5440   29.3420    9.9050 C.2    86  PHE86       0.2619
    104  O         36.3680   28.9690    9.9350 O.2    86  PHE86      -0.2715
    105  CB        38.8260   27.2780    9.4000 C.3    86  PHE86       0.0574
    106  CG        39.1100   27.7290    8.0000 C.ar   86  PHE86      -0.0200
    107  CD1       40.3350   28.3020    7.6780 C.ar   86  PHE86      -0.0042
    108  CD2       38.1480   27.5980    7.0050 C.ar   86  PHE86      -0.0042
    109  CE1       40.6020   28.7390    6.3810 C.ar   86  PHE86      -0.0003
    110  CE2       38.4070   28.0350    5.7010 C.ar   86  PHE86      -0.0003
    111  CZ        39.6350   28.6060    5.3910 C.ar   86  PHE86      -0.0000
    112  N         37.9200   30.5420    9.4710 N.am   87  MET87      -0.1963
    113  CA        36.9600   31.5100    8.9520 C.3    87  MET87       0.1736
    114  C         36.9640   31.3270    7.4440 C.2    87  MET87       0.2617
    115  O         37.9230   31.6910    6.7650 O.2    87  MET87      -0.2715
    116  CB        37.3750   32.9340    9.3190 C.3    87  MET87       0.0427
    117  CG        37.3100   33.2320   10.8070 C.3    87  MET87       0.0599
    118  SD        35.6660   32.9670   11.4820 S.3    87  MET87      -0.1393
    119  CE        35.9950   31.6430   12.5210 C.3    87  MET87       0.0692
    120  N         35.8790   30.7650    6.9310 N.am   88  THR88      -0.1937
    121  CA        35.7640   30.4610    5.5150 C.3    88  THR88       0.2028
    122  C         35.7940   31.5980    4.4980 C.2    88  THR88       0.2642
    123  O         36.1680   31.3640    3.3590 O.2    88  THR88      -0.2714
    124  CB        34.5040   29.5870    5.2540 C.3    88  THR88       0.1808
    125  OG1       33.3370   30.2720    5.7160 O.3    88  THR88      -0.2208
    126  CG2       34.6070   28.2640    6.0060 C.3    88  THR88       0.0379
    127  N         35.4330   32.8200    4.8770 N.am   89  TYR89      -0.1959
    128  CA        35.4240   33.8990    3.8930 C.3    89  TYR89       0.1771
    129  C         36.5400   34.9360    3.9550 C.2    89  TYR89       0.2620
    130  O         36.4160   36.0130    3.3780 O.2    89  TYR89      -0.2715
    131  CB        34.0760   34.6220    3.9040 C.3    89  TYR89       0.0574
    132  CG        32.9440   33.8120    3.3140 C.ar   89  TYR89      -0.0198
    133  CD1       32.4020   32.7300    4.0030 C.ar   89  TYR89      -0.0009
    134  CD2       32.4120   34.1260    2.0650 C.ar   89  TYR89      -0.0009
    135  CE1       31.3560   31.9820    3.4670 C.ar   89  TYR89       0.0417
    136  CE2       31.3650   33.3840    1.5190 C.ar   89  TYR89       0.0417
    137  CZ        30.8410   32.3140    2.2260 C.ar   89  TYR89       0.1957
    138  OH        29.7960   31.5810    1.7050 O.3    89  TYR89      -0.2866
    139  N         37.6290   34.6170    4.6420 N.am   90  GLY90      -0.1940
    140  CA        38.7420   35.5470    4.7140 C.3    90  GLY90       0.2014
    141  C         38.5180   36.7920    5.5450 C.2    90  GLY90       0.2638
    142  O         37.6660   36.8080    6.4370 O.2    90  GLY90      -0.2714
    143  N         39.2860   37.8410    5.2530 N.am   91  ASN91      -0.1972
    144  CA        39.1650   39.0870    6.0030 C.3    91  ASN91       0.1688
    145  C         38.0340   39.9870    5.4930 C.2    91  ASN91       0.2292
    146  O         37.6580   39.9320    4.3260 O.2    91  ASN91      -0.2864
    147  CB        40.5070   39.8480    6.0200 C.3    91  ASN91       0.1181
    148  CG        40.8760   40.4370    4.6740 C.2    91  ASN91       0.2629
    149  OD1       40.1110   41.1980    4.0790 O.2    91  ASN91      -0.2716
    150  ND2       42.0650   40.0980    4.1930 N.am   91  ASN91      -0.0877
    151  N         38.5510   42.2750    2.0990 N.3    94  ASP94      -0.1239
    152  CA        38.3510   41.6500    0.8020 C.3    94  ASP94       0.1674
    153  C         36.8690   41.3570    0.5910 C.2    94  ASP94       0.2266
    154  O         36.3240   41.5850   -0.4930 O.2    94  ASP94      -0.2867
    155  CB        39.1550   40.3490    0.7010 C.3    94  ASP94       0.1410
    156  CG        40.6550   40.5860    0.7370 C.2    94  ASP94       0.3668
    157  OD1       41.1160   41.6080    0.1800 O.co2  94  ASP94      -0.2456
    158  OD2       41.3750   39.7410    1.3110 O.co2  94  ASP94      -0.2456
    159  N         37.8400   38.6990   10.4800 N.3   139  LEU139     -0.1245
    160  CA        37.5700   37.5490    9.6260 C.3   139  LEU139      0.1561
    161  C         36.0670   37.3180    9.4430 C.2   139  LEU139      0.2260
    162  O         35.2740   37.5750   10.3490 O.2   139  LEU139     -0.2867
    163  CB        38.2720   36.3080   10.1940 C.3   139  LEU139      0.0270
    164  CG        39.7810   36.1480    9.8960 C.3   139  LEU139      0.0019
    165  CD1       40.3520   37.4070    9.2680 C.3   139  LEU139      0.0001
    166  CD2       40.5210   35.7950   11.1820 C.3   139  LEU139      0.0001
    167  N         40.3570   39.3870   14.9680 N.3   149  ALA149     -0.1231
    168  CA        41.5680   38.5940   15.1670 C.3   149  ALA149      0.1694
    169  C         42.0710   38.7440   16.6020 C.2   149  ALA149      0.2592
    170  O         42.0570   39.8470   17.1530 O.2   149  ALA149     -0.2718
    171  CB        42.6420   39.0400   14.1880 C.3   149  ALA149      0.0304
    172  N         42.5090   37.6350   17.2020 N.am  150  ASP150     -0.1960
    173  CA        42.9980   37.6580   18.5760 C.3   150  ASP150      0.1840
    174  C         44.4730   37.9400   18.6220 C.2   150  ASP150      0.2622
    175  O         45.0160   38.2040   19.6890 O.2   150  ASP150     -0.2715
    176  CB        42.7550   36.3340   19.2930 C.3   150  ASP150      0.1450
    177  CG        41.3920   35.7790   19.0320 C.2   150  ASP150      0.3671
    178  OD1       41.2220   35.1860   17.9510 O.co2 150  ASP150     -0.2456
    179  OD2       40.4950   35.9390   19.8870 O.co2 150  ASP150     -0.2456
    180  N         45.1460   37.8430   17.4840 N.am  151  PHE151     -0.1974
    181  CA        46.5600   38.1590   17.4950 C.3   151  PHE151      0.1639
    182  C         46.6150   39.6800   17.6730 C.2   151  PHE151      0.2290
    183  O         45.6840   40.3920   17.2740 O.2   151  PHE151     -0.2864
    184  CB        47.2340   37.7250   16.1870 C.3   151  PHE151      0.0560
    185  CG        46.7060   38.4120   14.9570 C.ar  151  PHE151     -0.0200
    186  CD1       46.8430   39.7940   14.7890 C.ar  151  PHE151     -0.0042
    187  CD2       46.1010   37.6710   13.9430 C.ar  151  PHE151     -0.0042
    188  CE1       46.3860   40.4300   13.6310 C.ar  151  PHE151     -0.0003
    189  CE2       45.6430   38.2910   12.7830 C.ar  151  PHE151     -0.0003
    190  CZ        45.7850   39.6760   12.6250 C.ar  151  PHE151     -0.0000
@<TRIPOS>BOND
     1   154   153    2
     2   157   156   ar
     3   153   152    1
     4   155   156    1
     5   155   152    1
     6   156   158   ar
     7   152   151    1
     8   136   134   ar
     9   136   137   ar
    10   138   137    1
    11   134   132   ar
    12   137   135   ar
    13    11    12    2
    14    11    10    1
    15    10     9    1
    16   132   131    1
    17   132   133   ar
    18   123   122    2
    19   130   129    2
    20     9     3   am
    21   135   133   ar
    22   128   131    1
    23   128   129    1
    24   128   127    1
    25   129   139   am
    26     3     2    1
    27     3     4    2
    28   149   148    2
    29     2     1    1
    30     2     5    1
    31   150   148   am
    32     8     6    1
    33   146   145    2
    34   122   127   am
    35   122   121    1
    36   139   140    1
    37   148   147    1
    38   140   141    1
    39   143   141   am
    40   143   144    1
    41   124   121    1
    42   124   125    1
    43   124   126    1
    44   111   110   ar
    45   111   109   ar
    46     5     6    1
    47     6     7    1
    48   145   144    1
    49   121   120    1
    50   141   142    2
    51   110   108   ar
    52   144   147    1
    53   109   107   ar
    54    21    19   ar
    55    21    23   ar
    56    28    27    2
    57    24    23    1
    58   115   114    2
    59   120   114   am
    60    19    18   ar
    61   108   106   ar
    62    13    14    1
    63    23    22   ar
    64   114   113    1
    65   107   106   ar
    66    27    26    1
    67   106   105    1
    68    18    17    1
    69    18    20   ar
    70    22    20   ar
    71    14    17    1
    72    14    15    1
    73    25    26    1
    74   113   116    1
    75   113   112    1
    76    26    29    1
    77    29    30    1
    78    29    31    1
    79    15    16    2
    80   165   164    1
    81   116   117    1
    82   105   102    1
    83   161   160    1
    84   161   162    2
    85   112   103   am
    86   160   163    1
    87   160   159    1
    88   164   163    1
    89   164   166    1
    90   103   104    2
    91   103   102    1
    92   102   101    1
    93   117   118    1
    94    40    39    2
    95    33    36    1
    96    33    32    1
    97    33    34    1
    98    37    34   am
    99    37    38    1
   100   118   119    1
   101    43    41    1
   102    41    38    1
   103    41    42    1
   104   101    94   am
   105    34    35    2
   106    39    38    1
   107    39    44   am
   108   190   189   ar
   109   190   188   ar
   110    95    94    2
   111    94    93    1
   112   189   187   ar
   113    44    45    1
   114    45    46    1
   115    45    48    1
   116    46    47    2
   117   188   186   ar
   118    88    87    2
   119   187   185   ar
   120    49    48    1
   121    49    50    1
   122    93    96    1
   123    93    92    1
   124   171   168    1
   125    90    89    1
   126    51    50    1
   127    51    52    1
   128    76    74    1
   129    96    97    1
   130    87    92   am
   131    87    86    1
   132   186   185   ar
   133    97    98    1
   134   185   184    1
   135   167   168    1
   136   100    98   ar
   137   168   169    1
   138    98    99   ar
   139    75    74    1
   140    80    79    2
   141    89    86    1
   142    89    91    1
   143    85    86    1
   144    74    71    1
   145   184   181    1
   146   169   170    2
   147   169   172   am
   148    79    78    1
   149    71    70    1
   150    71    72    1
   151    77    78    1
   152   172   173    1
   153   183   182    2
   154    61    59   ar
   155   180   181    1
   156   180   174   am
   157   181   182    1
   158    78    81    1
   159    81    83    1
   160    81    82    1
   161    60    59   ar
   162    72    73    2
   163   178   177   ar
   164    59    58    1
   165   173   174    1
   166   173   176    1
   167   174   175    2
   168    82    84    1
   169    69    68    1
   170   177   176    1
   171   177   179   ar
   172    68    67    1
   173    58    57    1
   174    57    54    1
   175    67    66    1
   176    54    55    1
   177    54    53    1
   178    66    63    1
   179    55    56    2
   180    63    62    1
   181    63    64    1
   182    65    64    2
