@<TRIPOS>MOLECULE
tmp/1m56A05.pdb
 150 147 0 0 0
SMALL
GASTEIGER

@<TRIPOS>ATOM
      1  N        -36.2940  186.0130  -14.4690 N.3   200  LEU200     -0.1245
      2  CA       -35.3780  187.1280  -14.7840 C.3   200  LEU200      0.1561
      3  C        -35.5020  187.6650  -16.1990 C.2   200  LEU200      0.2260
      4  O        -35.0300  188.7810  -16.4680 O.2   200  LEU200     -0.2867
      5  CB       -33.9510  186.6890  -14.5040 C.3   200  LEU200      0.0270
      6  CG       -33.3660  186.1050  -13.2470 C.3   200  LEU200      0.0019
      7  CD1      -31.9570  185.5520  -13.3030 C.3   200  LEU200      0.0001
      8  CD2      -33.3020  187.1780  -12.1560 C.3   200  LEU200      0.0001
      9  N        -40.3510  189.1500  -17.0580 N.3   203  ARG203     -0.1245
     10  CA       -41.1630  190.0210  -16.2030 C.3   203  ARG203      0.1563
     11  C        -41.7250  191.1770  -17.0400 C.2   203  ARG203      0.2260
     12  O        -41.0900  191.5390  -18.0430 O.2   203  ARG203     -0.2867
     13  CB       -40.3540  190.5970  -15.0480 C.3   203  ARG203      0.0307
     14  CG       -40.0030  189.5820  -13.9520 C.3   203  ARG203      0.0489
     15  CD       -39.2670  190.3530  -12.8580 C.3   203  ARG203      0.2205
     16  NE       -37.8700  190.4290  -13.1760 N.pl3 203  ARG203     -0.0865
     17  CZ       -37.0160  191.3690  -13.4250 C.cat 203  ARG203      0.5346
     18  NH1      -37.3700  192.6240  -13.4160 N.pl3 203  ARG203      0.1354
     19  NH2      -35.7830  190.9270  -13.6660 N.pl3 203  ARG203      0.1354
     20  N        -39.2710  195.6670  -11.7120 N.3   208  THR208     -0.1203
     21  CA       -37.8860  195.4030  -11.3160 C.3   208  THR208      0.1994
     22  C        -37.9330  194.2610  -10.3100 C.2   208  THR208      0.2618
     23  O        -39.0060  194.0660   -9.7210 O.2   208  THR208     -0.2717
     24  CB       -37.2650  196.6480  -10.6930 C.3   208  THR208      0.1784
     25  OG1      -38.1060  197.1670   -9.6480 O.3   208  THR208     -0.2211
     26  CG2      -37.1650  197.6500  -11.8370 C.3   208  THR208      0.0376
     27  N        -36.8140  193.5830  -10.1280 N.am  209  MET209     -0.1965
     28  CA       -36.7510  192.4790   -9.2010 C.3   209  MET209      0.1736
     29  C        -37.1030  192.8790   -7.7880 C.2   209  MET209      0.2616
     30  O        -37.6100  191.9880   -7.1150 O.2   209  MET209     -0.2715
     31  CB       -35.3440  191.8800   -9.1060 C.3   209  MET209      0.0427
     32  CG       -35.0250  191.1180  -10.3890 C.3   209  MET209      0.0599
     33  SD       -33.4410  190.3310  -10.2250 S.3   209  MET209     -0.1393
     34  CE       -33.8750  188.9750   -9.1490 C.3   209  MET209      0.0692
     35  N        -37.0290  194.1270   -7.4120 N.am  210  HIS210     -0.1973
     36  CA       -37.5260  194.6000   -6.1380 C.3   210  HIS210      0.1656
     37  C        -38.9710  194.9770   -6.2250 C.2   210  HIS210      0.2291
     38  O        -39.5200  195.5140   -5.2730 O.2   210  HIS210     -0.2864
     39  CB       -36.6060  195.7740   -5.7120 C.3   210  HIS210      0.0771
     40  CG       -35.3470  195.2170   -5.1340 C.ar  210  HIS210      0.0820
     41  ND1      -34.3910  195.9450   -4.4590 N.ar  210  HIS210     -0.2267
     42  CD2      -34.8840  193.9280   -5.1380 C.ar  210  HIS210      0.1154
     43  CE1      -33.4120  195.1360   -4.0850 C.ar  210  HIS210      0.1986
     44  NE2      -33.6730  193.8830   -4.4860 N.ar  210  HIS210     -0.2212
     45  N        -40.5780  185.3600   -5.5970 N.3   217  TRP217     -0.1241
     46  CA       -39.2540  185.3520   -5.0740 C.3   217  TRP217      0.1605
     47  C        -39.0260  183.9920   -4.3650 C.2   217  TRP217      0.2264
     48  O        -37.9160  183.4570   -4.4240 O.2   217  TRP217     -0.2867
     49  CB       -38.9070  186.3840   -3.9990 C.3   217  TRP217      0.0550
     50  CG       -38.3300  187.6620   -4.4710 C.ar  217  TRP217      0.0003
     51  CD1      -39.0440  188.8290   -4.5860 C.ar  217  TRP217      0.0946
     52  CD2      -37.0200  187.9700   -4.8920 C.ar  217  TRP217      0.0152
     53  NE1      -38.2400  189.8630   -5.0520 N.ar  217  TRP217     -0.2442
     54  CE2      -36.9870  189.3280   -5.2440 C.ar  217  TRP217      0.0810
     55  CE3      -35.8350  187.2370   -5.0170 C.ar  217  TRP217      0.0012
     56  CZ2      -35.8280  189.9750   -5.7050 C.ar  217  TRP217      0.0191
     57  CZ3      -34.6870  187.8530   -5.4700 C.ar  217  TRP217      0.0001
     58  CH2      -34.7100  189.2250   -5.8070 C.ar  217  TRP217      0.0015
     59  N        -38.2070  181.5260   -6.7480 N.3   220  PHE220     -0.1227
     60  CA       -36.9090  181.8620   -7.3530 C.3   220  PHE220      0.1736
     61  C        -35.7970  181.2470   -6.5260 C.2   220  PHE220      0.2595
     62  O        -34.8900  180.4860   -6.9300 O.2   220  PHE220     -0.2718
     63  CB       -36.8540  183.4070   -7.4790 C.3   220  PHE220      0.0547
     64  CG       -35.6380  183.8560   -8.2270 C.ar  220  PHE220     -0.0202
     65  CD1      -35.4420  183.4820   -9.5430 C.ar  220  PHE220     -0.0042
     66  CD2      -34.6850  184.6460   -7.6040 C.ar  220  PHE220     -0.0042
     67  CE1      -34.3160  183.9010  -10.2360 C.ar  220  PHE220     -0.0003
     68  CE2      -33.5570  185.0670   -8.2800 C.ar  220  PHE220     -0.0003
     69  CZ       -33.3780  184.6970   -9.6130 C.ar  220  PHE220     -0.0000
     70  N        -35.8080  181.5610   -5.2130 N.am  221  VAL221     -0.1980
     71  CA       -34.7680  180.9830   -4.3460 C.3   221  VAL221      0.1595
     72  C        -34.9160  179.4920   -4.3050 C.2   221  VAL221      0.2287
     73  O        -33.8980  178.7950   -4.4940 O.2   221  VAL221     -0.2864
     74  CB       -34.8890  181.5940   -2.9410 C.3   221  VAL221      0.0276
     75  CG1      -33.8080  180.8930   -2.1390 C.3   221  VAL221      0.0022
     76  CG2      -34.6890  183.1030   -3.0510 C.3   221  VAL221      0.0022
     77  N        -33.3060  178.0910   -7.3180 N.3   224  TRP224     -0.1227
     78  CA       -31.8460  178.0880   -7.2800 C.3   224  TRP224      0.1737
     79  C        -31.3440  176.8560   -6.5210 C.2   224  TRP224      0.2595
     80  O        -30.6090  176.0130   -7.0510 O.2   224  TRP224     -0.2718
     81  CB       -31.2300  179.3910   -6.6930 C.3   224  TRP224      0.0564
     82  CG       -31.1380  180.4490   -7.7730 C.ar  224  TRP224      0.0003
     83  CD1      -31.9490  181.5150   -7.9290 C.ar  224  TRP224      0.0946
     84  CD2      -30.1940  180.5180   -8.8420 C.ar  224  TRP224      0.0152
     85  NE1      -31.5860  182.2620   -9.0280 N.ar  224  TRP224     -0.2442
     86  CE2      -30.5010  181.6670   -9.6060 C.ar  224  TRP224      0.0810
     87  CE3      -29.1200  179.7390   -9.2400 C.ar  224  TRP224      0.0012
     88  CZ2      -29.7860  182.0670  -10.7390 C.ar  224  TRP224      0.0191
     89  CZ3      -28.4070  180.1230  -10.3560 C.ar  224  TRP224      0.0001
     90  CH2      -28.7330  181.2650  -11.0970 C.ar  224  TRP224      0.0015
     91  N        -31.7740  176.6670   -5.2670 N.am  225  LEU225     -0.1980
     92  CA       -31.2330  175.5900   -4.4530 C.3   225  LEU225      0.1596
     93  C        -31.4070  174.2870   -5.1600 C.2   225  LEU225      0.2287
     94  O        -30.5640  173.4010   -5.0390 O.2   225  LEU225     -0.2864
     95  CB       -31.8430  175.4770   -3.0700 C.3   225  LEU225      0.0297
     96  CG       -32.1440  176.7050   -2.2320 C.3   225  LEU225      0.0022
     97  CD1      -32.7240  176.2780   -0.9120 C.3   225  LEU225      0.0001
     98  CD2      -30.8640  177.4930   -1.9690 C.3   225  LEU225      0.0001
     99  N        -28.6260  173.6520   -7.6870 N.3   228  LEU228     -0.1245
    100  CA       -27.2770  173.4170   -7.1640 C.3   228  LEU228      0.1561
    101  C        -27.1420  172.1950   -6.2910 C.2   228  LEU228      0.2260
    102  O        -26.0310  171.6530   -6.1810 O.2   228  LEU228     -0.2867
    103  CB       -26.8270  174.6790   -6.4300 C.3   228  LEU228      0.0270
    104  CG       -26.8430  175.9430   -7.3200 C.3   228  LEU228      0.0019
    105  CD1      -26.4990  177.1200   -6.4500 C.3   228  LEU228      0.0001
    106  CD2      -25.8620  175.8220   -8.4840 C.3   228  LEU228      0.0001
    107  N        -34.5120  189.3890    1.2920 N.3   305  TYR305     -0.1241
    108  CA       -33.1660  188.9620    1.7240 C.3   305  TYR305      0.1605
    109  C        -33.2110  187.9090    2.8030 C.2   305  TYR305      0.2264
    110  O        -32.3080  187.0170    2.7290 O.2   305  TYR305     -0.2867
    111  CB       -32.1720  190.1280    1.9380 C.3   305  TYR305      0.0534
    112  CG       -31.9830  190.8800    0.6210 C.ar  305  TYR305     -0.0201
    113  CD1      -32.0270  190.1020   -0.5390 C.ar  305  TYR305     -0.0009
    114  CD2      -31.8390  192.2350    0.4630 C.ar  305  TYR305     -0.0009
    115  CE1      -31.9150  190.6710   -1.7840 C.ar  305  TYR305      0.0417
    116  CE2      -31.7230  192.8140   -0.7850 C.ar  305  TYR305      0.0417
    117  CZ       -31.7600  192.0280   -1.9140 C.ar  305  TYR305      0.1957
    118  OH       -31.6600  192.4320   -3.2310 O.3   305  TYR305     -0.2866
    119  N        -33.0910  184.7520    0.6750 N.3   308  VAL308     -0.1245
    120  CA       -31.7510  184.4080    0.1710 C.3   308  VAL308      0.1561
    121  C        -30.8000  184.0600    1.2930 C.2   308  VAL308      0.2260
    122  O        -29.8500  183.2920    1.1300 O.2   308  VAL308     -0.2867
    123  CB       -31.2780  185.5800   -0.7090 C.3   308  VAL308      0.0252
    124  CG1      -29.9520  185.2860   -1.3880 C.3   308  VAL308      0.0019
    125  CG2      -32.2900  185.8630   -1.8000 C.3   308  VAL308      0.0019
    126  N        -28.6780  180.1630    1.0180 N.3   312  VAL312     -0.1301
    127  CA       -27.2550  180.2320    1.0340 C.3   312  VAL312      0.1246
    128  C        -26.7670  179.5260    2.2820 C.3   312  VAL312      0.2009
    129  O        -25.7760  178.7960    2.1040 O.3   312  VAL312     -0.2188
    130  CB       -26.7670  181.6790    1.2670 C.3   312  VAL312      0.0202
    131  CG1      -25.3750  181.6770    1.9020 C.3   312  VAL312      0.0016
    132  CG2      -26.6570  182.4920   -0.0170 C.3   312  VAL312      0.0016
    133  N        -26.6350  175.4850    2.3080 N.3   315  PHE315     -0.1227
    134  CA       -25.5940  174.7020    1.6760 C.3   315  PHE315      0.1736
    135  C        -24.3640  174.6020    2.5420 C.2   315  PHE315      0.2595
    136  O        -23.3860  174.0120    2.0850 O.2   315  PHE315     -0.2718
    137  CB       -25.1180  175.3800    0.4040 C.3   315  PHE315      0.0547
    138  CG       -26.1450  175.2400   -0.7000 C.ar  315  PHE315     -0.0202
    139  CD1      -26.2010  174.0800   -1.4100 C.ar  315  PHE315     -0.0042
    140  CD2      -27.0150  176.2450   -1.0250 C.ar  315  PHE315     -0.0042
    141  CE1      -27.0990  173.8980   -2.4190 C.ar  315  PHE315     -0.0003
    142  CE2      -27.9120  176.0560   -2.0430 C.ar  315  PHE315     -0.0003
    143  CZ       -27.9800  174.8820   -2.7590 C.ar  315  PHE315     -0.0000
    144  N        -24.3380  175.1390    3.7490 N.am  316  VAL316     -0.1980
    145  CA       -23.1110  174.9680    4.5460 C.3   316  VAL316      0.1595
    146  C        -23.3540  174.3710    5.9310 C.2   316  VAL316      0.2287
    147  O        -22.6360  174.7910    6.8790 O.2   316  VAL316     -0.2864
    148  CB       -22.3060  176.2970    4.6850 C.3   316  VAL316      0.0276
    149  CG1      -21.7420  176.7110    3.3430 C.3   316  VAL316      0.0022
    150  CG2      -23.1580  177.3940    5.3320 C.3   316  VAL316      0.0022
@<TRIPOS>BOND
     1    12    11    2
     2     9    10    1
     3    11    10    1
     4     4     3    2
     5    10    13    1
     6     3     2    1
     7    13    14    1
     8     2     5    1
     9     2     1    1
    10     5     6    1
    11    14    15    1
    12    19    17    1
    13    17    18    1
    14    17    16    2
    15     7     6    1
    16     6     8    1
    17    16    15    1
    18    26    24    1
    19    20    21    1
    20    21    24    1
    21    21    22    1
    22    90    88   ar
    23    90    89   ar
    24    88    86   ar
    25    24    25    1
    26    32    33    1
    27    32    31    1
    28    89    87   ar
    29    22    27   am
    30    22    23    2
    31    67    69   ar
    32    67    65   ar
    33    33    34    1
    34    27    28    1
    35    69    68   ar
    36    86    85   ar
    37    86    84   ar
    38    65    64   ar
    39    87    84   ar
    40    28    31    1
    41    28    29    1
    42    85    83   ar
    43    84    82   ar
    44   106   104    1
    45    68    66   ar
    46    64    66   ar
    47    64    63    1
    48    83    82   ar
    49    29    35   am
    50    29    30    2
    51    82    81    1
    52    99   100    1
    53    63    60    1
    54    35    36    1
    55    60    59    1
    56    60    61    1
    57   104   105    1
    58   104   103    1
    59    77    78    1
    60    78    81    1
    61    78    79    1
    62   100   103    1
    63   100   101    1
    64    80    79    2
    65    62    61    2
    66    61    70   am
    67    79    91   am
    68   101   102    2
    69    37    36    1
    70    37    38    2
    71    36    39    1
    72    58    56   ar
    73    58    57   ar
    74    39    40    1
    75    56    54   ar
    76    45    46    1
    77    57    55   ar
    78    91    92    1
    79    54    53   ar
    80    54    52   ar
    81    70    71    1
    82    93    94    2
    83    93    92    1
    84    42    40   ar
    85    42    44   ar
    86    40    41   ar
    87    46    47    1
    88    46    49    1
    89    53    51   ar
    90    55    52   ar
    91    52    50   ar
    92    51    50   ar
    93    73    72    2
    94    44    43   ar
    95    50    49    1
    96    41    43   ar
    97    92    95    1
    98    48    47    2
    99    71    72    1
   100    71    74    1
   101   118   117    1
   102    95    96    1
   103    76    74    1
   104    74    75    1
   105   143   141   ar
   106   143   142   ar
   107   141   139   ar
   108    96    98    1
   109    96    97    1
   110   142   140   ar
   111   117   115   ar
   112   117   116   ar
   113   125   123    1
   114   115   113   ar
   115   139   138   ar
   116   124   123    1
   117   140   138   ar
   118   116   114   ar
   119   123   120    1
   120   138   137    1
   121   113   112   ar
   122   132   130    1
   123   120   119    1
   124   120   121    1
   125   137   134    1
   126   114   112   ar
   127   112   111    1
   128   126   127    1
   129   127   130    1
   130   127   128    1
   131   122   121    2
   132   130   131    1
   133   107   108    1
   134   134   133    1
   135   134   135    1
   136   108   111    1
   137   108   109    1
   138   136   135    2
   139   129   128    1
   140   135   144   am
   141   110   109    2
   142   149   148    1
   143   144   145    1
   144   145   148    1
   145   145   146    1
   146   148   150    1
   147   146   147    2
