@<TRIPOS>MOLECULE
tmp/1m56C02.pdb
 156 154 0 0 0
SMALL
GASTEIGER

@<TRIPOS>ATOM
      1  N        -24.3280  174.9700  -15.4990 N.3    87  MET87      -0.1245
      2  CA       -24.0450  175.2370  -14.0980 C.3    87  MET87       0.1570
      3  C        -24.4950  173.9720  -13.3610 C.2    87  MET87       0.2261
      4  O        -23.7420  173.4660  -12.5050 O.2    87  MET87      -0.2867
      5  CB       -24.7370  176.4310  -13.4780 C.3    87  MET87       0.0387
      6  CG       -24.2190  177.7590  -13.9670 C.3    87  MET87       0.0595
      7  SD       -24.9640  179.1630  -13.1140 S.3    87  MET87      -0.1393
      8  CE       -26.6410  178.5610  -13.0290 C.3    87  MET87       0.0692
      9  N        -21.7150  171.3850  -14.0110 N.3    90  VAL90      -0.1231
     10  CA       -20.5990  171.6550  -13.0910 C.3    90  VAL90       0.1692
     11  C        -20.8230  171.1180  -11.6890 C.2    90  VAL90       0.2591
     12  O        -19.9190  170.4480  -11.1960 O.2    90  VAL90      -0.2718
     13  CB       -20.3520  173.1690  -12.9280 C.3    90  VAL90       0.0266
     14  CG1      -19.6770  173.3080  -11.5860 C.3    90  VAL90       0.0020
     15  CG2      -19.5670  173.7020  -14.0950 C.3    90  VAL90       0.0020
     16  N        -22.0000  171.2870  -11.0560 N.am   91  MET91      -0.1979
     17  CA       -22.2950  170.7330   -9.7460 C.3    91  MET91       0.1605
     18  C        -22.2920  169.2100   -9.7570 C.2    91  MET91       0.2287
     19  O        -22.2410  168.5360   -8.7050 O.2    91  MET91      -0.2864
     20  CB       -23.6860  171.1770   -9.2270 C.3    91  MET91       0.0413
     21  CG       -23.6300  172.7280   -9.1430 C.3    91  MET91       0.0598
     22  SD       -22.3120  173.0710   -7.9890 S.3    91  MET91      -0.1393
     23  CE       -22.9480  172.6220   -6.3890 C.3    91  MET91       0.0692
     24  N        -20.2460  167.1050  -11.2740 N.3    93  PHE93      -0.1227
     25  CA       -18.8400  166.7760  -11.2230 C.3    93  PHE93       0.1736
     26  C        -18.3180  167.0550   -9.8440 C.2    93  PHE93       0.2596
     27  O        -17.4280  166.4330   -9.2780 O.2    93  PHE93      -0.2718
     28  CB       -18.1140  167.6210  -12.3370 C.3    93  PHE93       0.0547
     29  CG       -18.3160  166.8370  -13.6050 C.ar   93  PHE93      -0.0202
     30  CD1      -19.5150  166.8240  -14.2840 C.ar   93  PHE93      -0.0042
     31  CD2      -17.2980  166.0860  -14.1120 C.ar   93  PHE93      -0.0042
     32  CE1      -19.6920  166.0900  -15.4390 C.ar   93  PHE93      -0.0003
     33  CE2      -17.4370  165.3310  -15.2700 C.ar   93  PHE93      -0.0003
     34  CZ       -18.6420  165.3300  -15.9420 C.ar   93  PHE93      -0.0000
     35  N        -18.8440  168.0540   -9.1450 N.am   94  SER94      -0.1952
     36  CA       -18.4880  168.4960   -7.8030 C.3    94  SER94       0.1924
     37  C        -18.6030  167.3000   -6.8780 C.2    94  SER94       0.2314
     38  O        -17.7520  167.0780   -6.0130 O.2    94  SER94      -0.2863
     39  CB       -19.4400  169.6210   -7.3590 C.3    94  SER94       0.2116
     40  OG       -20.5750  169.0340   -6.7330 O.3    94  SER94      -0.2180
     41  N        -15.3200  164.8520   -8.2370 N.3    97  PHE97      -0.1227
     42  CA       -14.2140  165.4730   -7.5290 C.3    97  PHE97       0.1736
     43  C        -14.3110  165.3550   -6.0160 C.2    97  PHE97       0.2595
     44  O        -13.3220  164.9380   -5.4160 O.2    97  PHE97      -0.2718
     45  CB       -14.2420  166.9890   -7.8540 C.3    97  PHE97       0.0547
     46  CG       -13.6260  167.1600   -9.2230 C.ar   97  PHE97      -0.0202
     47  CD1      -12.2600  167.3320   -9.2610 C.ar   97  PHE97      -0.0042
     48  CD2      -14.3560  167.1470  -10.3870 C.ar   97  PHE97      -0.0042
     49  CE1      -11.6200  167.4930  -10.4760 C.ar   97  PHE97      -0.0003
     50  CE2      -13.7280  167.3110  -11.6030 C.ar   97  PHE97      -0.0003
     51  CZ       -12.3690  167.4810  -11.6480 C.ar   97  PHE97      -0.0000
     52  N        -15.3660  165.6680   -5.2810 N.am   98  TRP98      -0.1976
     53  CA       -15.4530  165.5710   -3.8350 C.3    98  TRP98       0.1640
     54  C        -14.9900  164.2170   -3.3480 C.2    98  TRP98       0.2290
     55  O        -14.1590  164.1310   -2.4390 O.2    98  TRP98      -0.2864
     56  CB       -16.8780  165.8630   -3.3370 C.3    98  TRP98       0.0576
     57  CG       -16.9970  166.0630   -1.8680 C.ar   98  TRP98       0.0006
     58  CD1      -16.0140  165.8500   -0.9280 C.ar   98  TRP98       0.0946
     59  CD2      -18.1360  166.5060   -1.1510 C.ar   98  TRP98       0.0152
     60  NE1      -16.5120  166.1550    0.3310 N.ar   98  TRP98      -0.2442
     61  CE2      -17.8010  166.5480    0.2110 C.ar   98  TRP98       0.0810
     62  CE3      -19.4460  166.8870   -1.5260 C.ar   98  TRP98       0.0012
     63  CZ2      -18.7130  166.9510    1.1870 C.ar   98  TRP98       0.0191
     64  CZ3      -20.3470  167.2870   -0.5560 C.ar   98  TRP98       0.0001
     65  CH2      -19.9780  167.3170    0.7980 C.ar   98  TRP98       0.0015
     66  N        -10.9150  163.9770   -4.0720 N.3   101  PHE101     -0.1227
     67  CA       -10.1910  164.7320   -3.0450 C.3   101  PHE101      0.1736
     68  C        -10.2990  164.2320   -1.6200 C.2   101  PHE101      0.2595
     69  O         -9.4290  164.5600   -0.8140 O.2   101  PHE101     -0.2718
     70  CB       -10.5860  166.2540   -3.0250 C.3   101  PHE101      0.0547
     71  CG        -9.9240  166.8470   -4.2460 C.ar  101  PHE101     -0.0202
     72  CD1       -8.5650  167.1120   -4.2190 C.ar  101  PHE101     -0.0042
     73  CD2      -10.6240  167.0860   -5.4050 C.ar  101  PHE101     -0.0042
     74  CE1       -7.9320  167.6260   -5.3320 C.ar  101  PHE101     -0.0003
     75  CE2      -10.0040  167.6020   -6.5240 C.ar  101  PHE101     -0.0003
     76  CZ        -8.6560  167.8740   -6.4900 C.ar  101  PHE101     -0.0000
     77  N        -11.3310  163.5180   -1.2150 N.am  102  LYS102     -0.1980
     78  CA       -11.4410  163.1100    0.1810 C.3   102  LYS102      0.1596
     79  C        -10.6450  161.8490    0.4100 C.2   102  LYS102      0.2287
     80  O        -10.0190  161.6200    1.4450 O.2   102  LYS102     -0.2864
     81  CB       -12.9070  162.8250    0.5530 C.3   102  LYS102      0.0298
     82  CG       -13.0740  162.4830    2.0220 C.3   102  LYS102      0.0038
     83  CD       -12.9160  160.9880    2.3360 C.3   102  LYS102      0.0206
     84  CE       -12.9130  160.9370    3.8570 C.3   102  LYS102      0.1093
     85  NZ       -12.5450  159.6880    4.5100 N.3   102  LYS102     -0.1314
     86  N         -7.0420  162.5420    0.3540 N.3   105  LEU105     -0.1231
     87  CA        -6.5460  163.3210    1.4810 C.3   105  LEU105      0.1693
     88  C         -6.5570  162.4460    2.7020 C.2   105  LEU105      0.2592
     89  O         -5.6060  162.4210    3.4730 O.2   105  LEU105     -0.2718
     90  CB        -7.3380  164.6040    1.7260 C.3   105  LEU105      0.0284
     91  CG        -7.0270  165.7620    0.7850 C.3   105  LEU105      0.0019
     92  CD1       -7.9700  166.8750    1.1490 C.3   105  LEU105      0.0001
     93  CD2       -5.5780  166.2050    0.8590 C.3   105  LEU105      0.0001
     94  N         -7.6910  161.8160    2.9660 N.am  106  TYR106     -0.1976
     95  CA        -7.8580  161.0040    4.1910 C.3   106  TYR106      0.1639
     96  C         -8.2690  159.6000    3.7650 C.2   106  TYR106      0.2290
     97  O         -9.4230  159.1520    3.7280 O.2   106  TYR106     -0.2864
     98  CB        -8.9120  161.7470    5.0420 C.3   106  TYR106      0.0560
     99  CG        -8.7080  163.2380    5.1510 C.ar  106  TYR106     -0.0198
    100  CD1       -7.6230  163.7550    5.8450 C.ar  106  TYR106     -0.0009
    101  CD2       -9.5740  164.1390    4.5300 C.ar  106  TYR106     -0.0009
    102  CE1       -7.4110  165.1220    5.9340 C.ar  106  TYR106      0.0417
    103  CE2       -9.3570  165.5010    4.6170 C.ar  106  TYR106      0.0417
    104  CZ        -8.2820  165.9870    5.3160 C.ar  106  TYR106      0.1957
    105  OH        -8.0670  167.3410    5.4170 O.3   106  TYR106     -0.2866
    106  N        -10.6750  156.8030   11.6210 N.3   113  PRO113     -0.2116
    107  CA        -9.9980  158.0010   11.1720 C.3   113  PRO113      0.1372
    108  C         -8.9500  158.6040   12.0850 C.2   113  PRO113      0.2244
    109  O         -8.2200  159.5360   11.6940 O.2   113  PRO113     -0.2868
    110  CB       -11.1730  158.9890   10.9130 C.3   113  PRO113      0.0268
    111  CG       -12.0920  158.6400   12.0420 C.3   113  PRO113      0.0207
    112  CD       -11.9360  157.1520   12.3170 C.3   113  PRO113      0.0892
    113  N         -4.7480  158.0110    9.1210 N.3   116  ASP116     -0.1239
    114  CA        -5.0940  157.6970    7.7390 C.3   116  ASP116      0.1674
    115  C         -4.1440  156.7200    7.0600 C.2   116  ASP116      0.2266
    116  O         -2.9850  156.5630    7.4030 O.2   116  ASP116     -0.2867
    117  CB        -5.0800  158.9240    6.8410 C.3   116  ASP116      0.1410
    118  CG        -6.1000  159.9520    7.2680 C.2   116  ASP116      0.3668
    119  OD1       -7.2720  159.5810    7.4820 O.co2 116  ASP116     -0.2456
    120  OD2       -5.6100  161.1180    7.3630 O.co2 116  ASP116     -0.2456
    121  N        -16.6360  173.7820  -21.6570 N.3   248  PHE248     -0.1241
    122  CA       -16.9120  173.3250  -20.3010 C.3   248  PHE248      0.1605
    123  C        -16.2610  171.9490  -20.2080 C.2   248  PHE248      0.2264
    124  O        -15.5200  171.5730  -19.2900 O.2   248  PHE248     -0.2867
    125  CB       -18.4330  173.2630  -20.0860 C.3   248  PHE248      0.0534
    126  CG       -18.7490  172.3270  -18.9650 C.ar  248  PHE248     -0.0203
    127  CD1      -18.4190  172.6560  -17.6670 C.ar  248  PHE248     -0.0042
    128  CD2      -19.3760  171.1320  -19.2500 C.ar  248  PHE248     -0.0042
    129  CE1      -18.7390  171.7930  -16.6440 C.ar  248  PHE248     -0.0003
    130  CE2      -19.6910  170.2310  -18.2260 C.ar  248  PHE248     -0.0003
    131  CZ       -19.3720  170.5820  -16.9150 C.ar  248  PHE248     -0.0000
    132  N        -12.6570  172.5220  -19.6880 N.3   251  VAL251     -0.1231
    133  CA       -12.3980  173.0010  -18.3330 C.3   251  VAL251      0.1692
    134  C        -12.5160  171.8790  -17.2970 C.2   251  VAL251      0.2591
    135  O        -11.8200  171.9070  -16.2810 O.2   251  VAL251     -0.2718
    136  CB       -13.3820  174.1000  -17.9160 C.3   251  VAL251      0.0266
    137  CG1      -13.1360  174.4750  -16.4750 C.3   251  VAL251      0.0020
    138  CG2      -13.1220  175.3030  -18.8160 C.3   251  VAL251      0.0020
    139  N        -13.4010  170.9110  -17.5390 N.am  252  VAL252     -0.1980
    140  CA       -13.5460  169.7820  -16.6310 C.3   252  VAL252      0.1595
    141  C        -12.3860  168.8020  -16.7190 C.2   252  VAL252      0.2287
    142  O        -11.8470  168.2000  -15.7690 O.2   252  VAL252     -0.2864
    143  CB       -14.8610  169.0320  -16.9170 C.3   252  VAL252      0.0276
    144  CG1      -14.9760  167.8650  -15.9530 C.3   252  VAL252      0.0022
    145  CG2      -16.0310  169.9630  -16.7690 C.3   252  VAL252      0.0022
    146  N         -9.0980  170.2860  -15.1450 N.3   255  PHE255     -0.1241
    147  CA        -9.0420  170.1980  -13.6850 C.3   255  PHE255      0.1605
    148  C         -8.8480  168.7250  -13.3680 C.2   255  PHE255      0.2264
    149  O         -7.9700  168.3530  -12.5690 O.2   255  PHE255     -0.2867
    150  CB       -10.2290  170.9770  -13.1140 C.3   255  PHE255      0.0534
    151  CG       -10.1990  171.0590  -11.6180 C.ar  255  PHE255     -0.0203
    152  CD1       -9.0780  171.5210  -10.9550 C.ar  255  PHE255     -0.0042
    153  CD2      -11.2810  170.6700  -10.8610 C.ar  255  PHE255     -0.0042
    154  CE1       -9.0470  171.5800   -9.5710 C.ar  255  PHE255     -0.0003
    155  CE2      -11.2650  170.7280   -9.4820 C.ar  255  PHE255     -0.0003
    156  CZ       -10.1430  171.1800   -8.8250 C.ar  255  PHE255     -0.0000
@<TRIPOS>BOND
     1   121   122    1
     2   122   123    1
     3   122   125    1
     4   123   124    2
     5   125   126    1
     6   132   133    1
     7   128   126   ar
     8   128   130   ar
     9   126   127   ar
    10   138   136    1
    11   133   136    1
    12   133   134    1
    13   130   131   ar
    14   136   137    1
    15   127   129   ar
    16   139   134   am
    17   139   140    1
    18   134   135    2
    19   143   145    1
    20   143   140    1
    21   143   144    1
    22   131   129   ar
    23   141   140    1
    24   141   142    2
    25    34    32   ar
    26    34    33   ar
    27     1     2    1
    28    32    30   ar
    29    33    31   ar
    30   146   147    1
    31    30    29   ar
    32    31    29   ar
    33     2     5    1
    34     2     3    1
    35    15    13    1
    36     9    10    1
    37     6     5    1
    38     6     7    1
    39   147   148    1
    40   147   150    1
    41    29    28    1
    42   148   149    2
    43     3     4    2
    44   150   151    1
    45     7     8    1
    46    10    13    1
    47    10    11    1
    48    13    14    1
    49    28    25    1
    50    11    12    2
    51    11    16   am
    52    51    50   ar
    53    51    49   ar
    54   151   152   ar
    55   151   153   ar
    56    50    48   ar
    57    24    25    1
    58    25    26    1
    59    16    17    1
    60   152   154   ar
    61   153   155   ar
    62    49    47   ar
    63    48    46   ar
    64    26    27    2
    65    26    35   am
    66    18    17    1
    67    18    19    2
    68    17    20    1
    69   154   156   ar
    70   155   156   ar
    71    47    46   ar
    72    20    21    1
    73    46    45    1
    74    35    36    1
    75    21    22    1
    76    41    42    1
    77    22    23    1
    78    45    42    1
    79    36    39    1
    80    36    37    1
    81    42    43    1
    82    39    40    1
    83    37    38    2
    84    75    76   ar
    85    75    73   ar
    86    76    74   ar
    87    43    44    2
    88    43    52   am
    89    73    71   ar
    90    74    72   ar
    91    52    53    1
    92    71    72   ar
    93    71    70    1
    94    66    67    1
    95    53    54    1
    96    53    56    1
    97    54    55    2
    98    56    57    1
    99    67    70    1
   100    67    68    1
   101    57    59   ar
   102    57    58   ar
   103    68    77   am
   104    68    69    2
   105    62    59   ar
   106    62    64   ar
   107    77    78    1
   108    59    61   ar
   109    58    60   ar
   110    64    65   ar
   111    78    79    1
   112    78    81    1
   113    61    60   ar
   114    61    63   ar
   115    86    87    1
   116    79    80    2
   117    81    82    1
   118    91    93    1
   119    91    92    1
   120    91    90    1
   121    65    63   ar
   122    87    90    1
   123    87    88    1
   124    82    83    1
   125    83    84    1
   126    88    94   am
   127    88    89    2
   128    94    95    1
   129    97    96    2
   130    96    95    1
   131    84    85    1
   132    95    98    1
   133   101   103   ar
   134   101    99   ar
   135   103   104   ar
   136    98    99    1
   137    99   100   ar
   138   104   105    1
   139   104   102   ar
   140   100   102   ar
   141   117   118    1
   142   117   114    1
   143   115   116    2
   144   115   114    1
   145   118   120   ar
   146   118   119   ar
   147   114   113    1
   148   110   107    1
   149   110   111    1
   150   107   106    1
   151   107   108    1
   152   106   112    1
   153   109   108    2
   154   111   112    1
