@<TRIPOS>MOLECULE
tmp/1m56A02.pdb
 151 145 0 0 0
SMALL
GASTEIGER

@<TRIPOS>ATOM
      1  N        -40.9920  180.4580  -19.9470 N.3   121  ALA121     -0.1231
      2  CA       -39.9950  180.5720  -20.9660 C.3   121  ALA121      0.1694
      3  C        -39.8540  179.4050  -21.9110 C.2   121  ALA121      0.2592
      4  O        -39.4490  179.5620  -23.0710 O.2   121  ALA121     -0.2718
      5  CB       -38.6260  180.7990  -20.2960 C.3   121  ALA121      0.0304
      6  N        -39.9570  178.1730  -21.4220 N.am  122  PHE122     -0.1963
      7  CA       -39.8000  176.8890  -22.0700 C.3   122  PHE122      0.1756
      8  C        -40.9630  175.9270  -21.7920 C.2   122  PHE122      0.2461
      9  O        -40.7810  174.9540  -21.0740 O.2   122  PHE122     -0.2730
     10  CB       -38.5600  176.1490  -21.5390 C.3   122  PHE122      0.0574
     11  CG       -37.3060  176.9650  -21.5400 C.ar  122  PHE122     -0.0200
     12  CD1      -36.8420  177.4370  -22.7660 C.ar  122  PHE122     -0.0042
     13  CD2      -36.6140  177.2760  -20.3870 C.ar  122  PHE122     -0.0042
     14  CE1      -35.6930  178.1910  -22.8580 C.ar  122  PHE122     -0.0003
     15  CE2      -35.4450  178.0490  -20.4690 C.ar  122  PHE122     -0.0003
     16  CZ       -35.0030  178.4920  -21.7030 C.ar  122  PHE122     -0.0000
     17  N        -42.0720  176.1520  -22.4720 N.am  123  PRO123     -0.2716
     18  CA       -43.2860  175.4100  -22.3550 C.3   123  PRO123      0.1536
     19  C        -43.1290  173.9300  -22.5790 C.2   123  PRO123      0.2598
     20  O        -43.6410  173.1460  -21.7440 O.2   123  PRO123     -0.2715
     21  CB       -44.3010  175.9910  -23.3800 C.3   123  PRO123      0.0310
     22  CG       -43.7430  177.3820  -23.5570 C.3   123  PRO123      0.0237
     23  CD       -42.2440  177.2820  -23.3940 C.3   123  PRO123      0.0939
     24  N        -42.5060  173.4980  -23.6670 N.am  124  ARG124     -0.1964
     25  CA       -42.4100  172.0590  -23.9460 C.3   124  ARG124      0.1729
     26  C        -41.6770  171.3320  -22.8370 C.2   124  ARG124      0.2616
     27  O        -42.1890  170.4390  -22.1800 O.2   124  ARG124     -0.2715
     28  CB       -41.6450  171.8030  -25.2460 C.3   124  ARG124      0.0348
     29  CG       -42.3730  170.8790  -26.2330 C.3   124  ARG124      0.0492
     30  CD       -41.8160  170.9660  -27.6560 C.3   124  ARG124      0.2205
     31  NE       -40.8630  172.0750  -27.8290 N.pl3 124  ARG124     -0.0865
     32  CZ       -40.4700  172.6800  -28.9410 C.cat 124  ARG124      0.5346
     33  NH1      -40.9990  172.2990  -30.0980 N.pl3 124  ARG124      0.1354
     34  NH2      -39.5840  173.6700  -29.0330 N.pl3 124  ARG124      0.1354
     35  N        -40.4660  171.7710  -22.5360 N.am  125  MET125     -0.1977
     36  CA       -39.6430  171.3300  -21.4280 C.3   125  MET125      0.1605
     37  C        -40.3740  171.3160  -20.0940 C.2   125  MET125      0.2287
     38  O        -40.0510  170.4240  -19.2910 O.2   125  MET125     -0.2864
     39  CB       -38.4030  172.2160  -21.2750 C.3   125  MET125      0.0413
     40  CG       -37.3920  171.6970  -20.2650 C.3   125  MET125      0.0598
     41  SD       -36.1650  172.8300  -19.6400 S.3   125  MET125     -0.1393
     42  CE       -35.0580  173.1800  -20.9810 C.3   125  MET125      0.0692
     43  N        -42.4930  168.1930  -20.1260 N.3   128  LEU128     -0.1245
     44  CA       -41.5440  167.1190  -19.9100 C.3   128  LEU128      0.1561
     45  C        -41.1710  166.9600  -18.4280 C.2   128  LEU128      0.2260
     46  O        -41.0130  165.8440  -17.8900 O.2   128  LEU128     -0.2867
     47  CB       -40.2470  167.3560  -20.6900 C.3   128  LEU128      0.0270
     48  CG       -39.1260  166.4980  -20.0960 C.3   128  LEU128      0.0019
     49  CD1      -39.5770  165.0420  -20.1850 C.3   128  LEU128      0.0001
     50  CD2      -37.7380  166.7220  -20.7090 C.3   128  LEU128      0.0001
     51  N        -41.7990  163.4070  -16.3960 N.3   132  LEU132     -0.1245
     52  CA       -40.7320  162.6310  -15.7710 C.3   132  LEU132      0.1561
     53  C        -41.0180  162.4750  -14.2740 C.2   132  LEU132      0.2260
     54  O        -40.4270  161.5820  -13.6600 O.2   132  LEU132     -0.2867
     55  CB       -39.3380  163.1530  -15.9030 C.3   132  LEU132      0.0270
     56  CG       -38.6670  163.3860  -17.2410 C.3   132  LEU132      0.0019
     57  CD1      -37.4610  164.3190  -17.1020 C.3   132  LEU132      0.0001
     58  CD2      -38.1300  162.1040  -17.8770 C.3   132  LEU132      0.0001
     59  N        -35.5960  158.3940   -7.8050 N.3   181  VAL181     -0.1231
     60  CA       -34.9590  159.6000   -7.3360 C.3   181  VAL181      0.1692
     61  C        -34.2060  160.2220   -8.4960 C.2   181  VAL181      0.2592
     62  O        -33.8850  161.4160   -8.5040 O.2   181  VAL181     -0.2718
     63  CB       -33.8940  159.3670   -6.2570 C.3   181  VAL181      0.0266
     64  CG1      -33.1750  160.6390   -5.8580 C.3   181  VAL181      0.0020
     65  CG2      -34.4530  158.7690   -4.9940 C.3   181  VAL181      0.0020
     66  N        -33.7450  159.4380   -9.4490 N.am  182  HIS182     -0.1962
     67  CA       -33.0160  160.1290  -10.5430 C.3   182  HIS182      0.1787
     68  C        -34.0170  160.9150  -11.3620 C.2   182  HIS182      0.2620
     69  O        -33.9830  162.1460  -11.3070 O.2   182  HIS182     -0.2715
     70  CB       -32.3240  159.1700  -11.4570 C.3   182  HIS182      0.0785
     71  CG       -30.8680  158.9940  -11.1940 C.ar  182  HIS182      0.0821
     72  ND1      -30.2880  157.7570  -11.0480 N.ar  182  HIS182     -0.2267
     73  CD2      -29.8910  159.8970  -11.0850 C.ar  182  HIS182      0.1154
     74  CE1      -28.9980  157.9050  -10.8440 C.ar  182  HIS182      0.1986
     75  NE2      -28.7420  159.1910  -10.8600 N.ar  182  HIS182     -0.2212
     76  N        -35.0150  160.2280  -11.9110 N.am  183  LEU183     -0.1977
     77  CA       -36.0660  160.9460  -12.6600 C.3   183  LEU183      0.1596
     78  C        -36.6180  162.1230  -11.9160 C.2   183  LEU183      0.2287
     79  O        -36.5910  163.2910  -12.4280 O.2   183  LEU183     -0.2864
     80  CB       -36.9550  159.7660  -13.0600 C.3   183  LEU183      0.0297
     81  CG       -36.5460  158.9690  -14.2930 C.3   183  LEU183      0.0022
     82  CD1      -37.7560  158.2050  -14.8380 C.3   183  LEU183      0.0001
     83  CD2      -36.0610  159.8160  -15.4480 C.3   183  LEU183      0.0001
     84  N        -35.1930  164.0480   -9.8160 N.3   185  GLY185     -0.1210
     85  CA       -34.1390  165.0660   -9.7980 C.3   185  GLY185      0.1956
     86  C        -34.0570  165.6860  -11.1900 C.2   185  GLY185      0.2611
     87  O        -33.7920  166.8910  -11.3490 O.2   185  GLY185     -0.2717
     88  N        -34.4180  164.9510  -12.2500 N.am  186  ALA186     -0.1979
     89  CA       -34.3650  165.5960  -13.5820 C.3   186  ALA186      0.1597
     90  C        -35.5830  166.4960  -13.5620 C.2   186  ALA186      0.2287
     91  O        -35.5520  167.7180  -13.7910 O.2   186  ALA186     -0.2864
     92  CB       -34.4440  164.4890  -14.6000 C.3   186  ALA186      0.0319
     93  N        -34.7130  169.7700  -11.7270 N.3   189  ILE189     -0.1231
     94  CA       -33.7650  170.5690  -12.4960 C.3   189  ILE189      0.1692
     95  C        -34.3690  171.1360  -13.7630 C.2   189  ILE189      0.2591
     96  O        -34.4900  172.3660  -13.8200 O.2   189  ILE189     -0.2718
     97  CB       -32.5860  169.6280  -12.8030 C.3   189  ILE189      0.0266
     98  CG1      -31.9670  169.1780  -11.4730 C.3   189  ILE189      0.0019
     99  CG2      -31.5500  170.3640  -13.6180 C.3   189  ILE189      0.0020
    100  CD1      -31.0180  168.0270  -11.4780 C.3   189  ILE189      0.0001
    101  N        -35.0560  170.4630  -14.6510 N.am  190  LEU190     -0.1980
    102  CA       -35.8150  171.0800  -15.7300 C.3   190  LEU190      0.1596
    103  C        -36.7690  172.1900  -15.2850 C.2   190  LEU190      0.2287
    104  O        -36.7810  173.3370  -15.7830 O.2   190  LEU190     -0.2864
    105  CB       -36.6470  169.9140  -16.3850 C.3   190  LEU190      0.0297
    106  CG       -35.7000  168.8050  -16.9000 C.3   190  LEU190      0.0022
    107  CD1      -36.4690  167.6280  -17.4420 C.3   190  LEU190      0.0001
    108  CD2      -34.7270  169.3590  -17.9300 C.3   190  LEU190      0.0001
    109  N        -34.6230  175.3210  -14.0110 N.3   193  ILE193     -0.1245
    110  CA       -34.0340  176.1390  -15.0610 C.3   193  ILE193      0.1561
    111  C        -35.1040  177.0070  -15.7020 C.2   193  ILE193      0.2260
    112  O        -34.9360  178.2200  -15.8440 O.2   193  ILE193     -0.2867
    113  CB       -33.5750  175.1530  -16.1480 C.3   193  ILE193      0.0252
    114  CG1      -32.0830  174.8370  -16.0620 C.3   193  ILE193      0.0019
    115  CG2      -33.9910  175.6700  -17.5100 C.3   193  ILE193      0.0019
    116  CD1      -31.7500  173.3890  -16.4080 C.3   193  ILE193      0.0001
    117  N        -29.5550  169.1320   -6.5330 N.3   230  LEU230     -0.1231
    118  CA       -29.9300  167.7650   -6.9500 C.3   230  LEU230      0.1678
    119  C        -28.8310  167.0700   -7.7030 C.2   230  LEU230      0.2434
    120  O        -28.5900  165.8480   -7.4510 O.2   230  LEU230     -0.2733
    121  CB       -31.2900  167.6540   -7.5390 C.3   230  LEU230      0.0284
    122  CG       -32.4940  168.2260   -6.8050 C.3   230  LEU230      0.0019
    123  CD1      -33.4280  167.0190   -6.8960 C.3   230  LEU230      0.0001
    124  CD2      -32.3980  168.6970   -5.3880 C.3   230  LEU230      0.0001
    125  N        -28.0210  167.7740   -8.4670 N.am  231  PRO231     -0.2729
    126  CA       -26.9250  167.1670   -9.2280 C.3   231  PRO231      0.1401
    127  C        -25.9310  166.4660   -8.3300 C.2   231  PRO231      0.2269
    128  O        -25.4630  165.3630   -8.5660 O.2   231  PRO231     -0.2865
    129  CB       -26.2930  168.3020  -10.0450 C.3   231  PRO231      0.0296
    130  CG       -27.4290  169.2610  -10.1290 C.3   231  PRO231      0.0237
    131  CD       -28.2630  169.1450   -8.8830 C.3   231  PRO231      0.0939
    132  N        -26.7880  165.0330   -5.6190 N.3   233  LEU233     -0.1231
    133  CA       -27.4710  163.8030   -5.1870 C.3   233  LEU233      0.1693
    134  C        -27.5210  162.8190   -6.3470 C.2   233  LEU233      0.2591
    135  O        -27.4530  161.6230   -6.1220 O.2   233  LEU233     -0.2718
    136  CB       -28.8770  164.0210   -4.6600 C.3   233  LEU233      0.0284
    137  CG       -29.7700  162.7730   -4.5560 C.3   233  LEU233      0.0019
    138  CD1      -29.5250  161.9570   -3.3180 C.3   233  LEU233      0.0001
    139  CD2      -31.2220  163.2130   -4.6090 C.3   233  LEU233      0.0001
    140  N        -27.5140  163.3140   -7.5980 N.am  234  ALA234     -0.1980
    141  CA       -27.4250  162.3430   -8.6900 C.3   234  ALA234      0.1597
    142  C        -26.1150  161.5840   -8.4740 C.2   234  ALA234      0.2287
    143  O        -26.0900  160.3780   -8.6780 O.2   234  ALA234     -0.2864
    144  CB       -27.3850  162.9540  -10.0510 C.3   234  ALA234      0.0319
    145  N        -25.4000  157.6730   -7.6060 N.3   238  THR238     -0.1218
    146  CA       -24.8770  156.8590   -8.7300 C.3   238  THR238      0.1862
    147  C        -23.8170  155.9630   -8.1550 C.2   238  THR238      0.2287
    148  O        -23.4800  154.9340   -8.7100 O.2   238  THR238     -0.2866
    149  CB       -24.2880  157.5910   -9.9260 C.3   238  THR238      0.1770
    150  OG1      -25.3720  157.8850  -10.8170 O.3   238  THR238     -0.2211
    151  CG2      -23.2790  156.7400  -10.6800 C.3   238  THR238      0.0375
@<TRIPOS>BOND
     1    33    32    1
     2    34    32    1
     3    32    31    2
     4    31    30    1
     5    30    29    1
     6    29    28    1
     7    28    25    1
     8    25    24    1
     9    25    26    1
    10    24    19   am
    11    22    23    1
    12    22    21    1
    13    23    17    1
    14    21    18    1
    15     4     3    2
    16    14    12   ar
    17    14    16   ar
    18    26    35   am
    19    26    27    2
    20    12    11   ar
    21    19    18    1
    22    19    20    2
    23    35    36    1
    24    17    18    1
    25    17     8   am
    26     7     8    1
    27     7    10    1
    28     7     6    1
    29     3     6   am
    30     3     2    1
    31     8     9    2
    32    16    15   ar
    33    11    10    1
    34    11    13   ar
    35    36    39    1
    36    36    37    1
    37    39    40    1
    38    42    41    1
    39     2     5    1
    40     2     1    1
    41    50    48    1
    42    47    48    1
    43    47    44    1
    44    15    13   ar
    45    40    41    1
    46    49    48    1
    47    43    44    1
    48    37    38    2
    49    44    45    1
    50    45    46    2
    51   108   106    1
    52    58    56    1
    53   115   113    1
    54   107   106    1
    55    56    57    1
    56    56    55    1
    57   106   105    1
    58   116   114    1
    59    51    52    1
    60   105   102    1
    61   113   114    1
    62   113   110    1
    63    55    52    1
    64   112   111    2
    65   104   103    2
    66    52    53    1
    67   102   103    1
    68   102   101    1
    69   111   110    1
    70    83    81    1
    71   110   109    1
    72    82    81    1
    73   101    95   am
    74    92    89    1
    75    81    80    1
    76    53    54    2
    77    96    95    2
    78    91    90    2
    79    95    94    1
    80    99    97    1
    81    89    90    1
    82    89    88    1
    83    80    77    1
    84    97    94    1
    85    97    98    1
    86    77    78    1
    87    77    76    1
    88    94    93    1
    89    79    78    2
    90    88    86   am
    91    76    68   am
    92   100    98    1
    93    70    71    1
    94    70    67    1
    95    68    69    2
    96    68    67    1
    97    87    86    2
    98    71    73   ar
    99    71    72   ar
   100    86    85    1
   101    73    75   ar
   102    72    74   ar
   103    75    74   ar
   104   150   149    1
   105   151   149    1
   106    67    66    1
   107   130   129    1
   108   130   131    1
   109   144   141    1
   110   129   126    1
   111   149   146    1
   112    84    85    1
   113    66    61   am
   114   126   125    1
   115   126   127    1
   116   131   125    1
   117   146   147    1
   118   146   145    1
   119   148   147    2
   120   141   142    1
   121   141   140    1
   122   143   142    2
   123   128   127    2
   124    62    61    2
   125    61    60    1
   126   125   119   am
   127    59    60    1
   128   119   120    2
   129   119   118    1
   130   140   134   am
   131   121   118    1
   132   121   122    1
   133    60    63    1
   134   118   117    1
   135   123   122    1
   136   122   124    1
   137   134   135    2
   138   134   133    1
   139    63    64    1
   140    63    65    1
   141   132   133    1
   142   133   136    1
   143   136   137    1
   144   139   137    1
   145   137   138    1
