@<TRIPOS>MOLECULE
tmp/1m56C01.pdb
 168 161 0 0 0
SMALL
GASTEIGER

@<TRIPOS>ATOM
      1  N        -42.0830  183.4310  -27.0840 N.3     9  HIS9       -0.1297
      2  CA       -42.5860  182.3850  -27.9690 C.3     9  HIS9        0.1306
      3  C        -43.6330  181.4540  -27.3740 C.3     9  HIS9        0.2013
      4  O        -43.1790  180.6340  -26.5700 O.3     9  HIS9       -0.2188
      5  CB       -41.4420  181.4660  -28.4110 C.3     9  HIS9        0.0691
      6  CG       -41.7500  180.3850  -29.3870 C.ar    9  HIS9        0.0814
      7  ND1      -40.7380  179.7110  -30.0480 N.ar    9  HIS9       -0.2268
      8  CD2      -42.9030  179.8330  -29.8490 C.ar    9  HIS9        0.1154
      9  CE1      -41.2300  178.7940  -30.8550 C.ar    9  HIS9        0.1986
     10  NE2      -42.5310  178.8450  -30.7560 N.ar    9  HIS9       -0.2212
     11  N        -46.2410  178.2260  -27.7130 N.3    11  LEU11      -0.1245
     12  CA       -46.1420  177.0280  -28.5040 C.3    11  LEU11       0.1561
     13  C        -47.3620  176.1390  -28.6040 C.2    11  LEU11       0.2260
     14  O        -47.9590  175.7650  -27.5980 O.2    11  LEU11      -0.2867
     15  CB       -45.0560  176.1880  -27.7930 C.3    11  LEU11       0.0270
     16  CG       -43.6060  176.6790  -27.9580 C.3    11  LEU11       0.0019
     17  CD1      -42.6540  176.0200  -26.9860 C.3    11  LEU11       0.0001
     18  CD2      -43.1190  176.3440  -29.3590 C.3    11  LEU11       0.0001
     19  N        -41.0870  160.6590  -24.5040 N.3    20  ALA20      -0.1245
     20  CA       -39.7670  160.5240  -23.9150 C.3    20  ALA20       0.1562
     21  C        -39.7680  160.1020  -22.4520 C.2    20  ALA20       0.2260
     22  O        -38.7490  159.5680  -21.9840 O.2    20  ALA20      -0.2867
     23  CB       -39.0520  161.8660  -23.9730 C.3    20  ALA20       0.0290
     24  N        -38.0330  156.5720  -21.2070 N.3    24  ALA24      -0.1245
     25  CA       -37.2000  156.6000  -20.0100 C.3    24  ALA24       0.1562
     26  C        -37.7170  155.7300  -18.8770 C.2    24  ALA24       0.2260
     27  O        -36.9340  155.1560  -18.1310 O.2    24  ALA24      -0.2867
     28  CB       -37.0200  158.0570  -19.5020 C.3    24  ALA24       0.0290
     29  N        -34.9540  152.7060  -18.1750 N.3    28  LEU28      -0.1301
     30  CA       -34.4470  152.4300  -16.8450 C.3    28  LEU28       0.1247
     31  C        -35.0910  151.2310  -16.1900 C.3    28  LEU28       0.2009
     32  O        -34.2790  150.5390  -15.5700 O.3    28  LEU28      -0.2188
     33  CB       -34.6350  153.6150  -15.8780 C.3    28  LEU28       0.0217
     34  CG       -33.8510  154.8380  -16.3010 C.3    28  LEU28       0.0015
     35  CD1      -33.9500  155.9940  -15.3000 C.3    28  LEU28       0.0000
     36  CD2      -32.3900  154.4580  -16.4640 C.3    28  LEU28       0.0000
     37  N        -36.3760  157.2650  -26.6050 N.3    50  VAL50      -0.1245
     38  CA       -35.9050  158.5030  -25.9990 C.3    50  VAL50       0.1561
     39  C        -35.1490  159.3410  -27.0070 C.2    50  VAL50       0.2260
     40  O        -35.2860  160.5620  -27.0810 O.2    50  VAL50      -0.2867
     41  CB       -34.9980  158.1720  -24.8020 C.3    50  VAL50       0.0252
     42  CG1      -33.9170  159.1770  -24.5460 C.3    50  VAL50       0.0019
     43  CG2      -35.8740  158.0580  -23.5510 C.3    50  VAL50       0.0019
     44  N        -35.8710  162.7330  -28.6130 N.3    54  MET54      -0.1245
     45  CA       -34.8730  163.8010  -28.6060 C.3    54  MET54       0.1570
     46  C        -34.6130  164.3740  -29.9890 C.2    54  MET54       0.2261
     47  O        -34.1610  165.5310  -30.1320 O.2    54  MET54      -0.2867
     48  CB       -33.6070  163.2410  -27.9630 C.3    54  MET54       0.0387
     49  CG       -33.8050  162.8770  -26.5030 C.3    54  MET54       0.0595
     50  SD       -32.3880  162.2810  -25.5810 S.3    54  MET54      -0.1393
     51  CE       -31.1680  161.8660  -26.8040 C.3    54  MET54       0.0692
     52  N        -37.9670  166.5090  -31.2010 N.3    57  TRP57      -0.1227
     53  CA       -37.9810  167.6970  -30.3340 C.3    57  TRP57       0.1737
     54  C        -36.9490  168.7130  -30.7620 C.2    57  TRP57       0.2595
     55  O        -37.2400  169.9000  -30.9400 O.2    57  TRP57      -0.2718
     56  CB       -37.7870  167.2350  -28.9020 C.3    57  TRP57       0.0564
     57  CG       -37.8040  168.1600  -27.7530 C.ar   57  TRP57       0.0003
     58  CD1      -37.3150  169.4290  -27.7140 C.ar   57  TRP57       0.0946
     59  CD2      -38.3050  167.9060  -26.4340 C.ar   57  TRP57       0.0152
     60  NE1      -37.4990  169.9730  -26.4660 N.ar   57  TRP57      -0.2442
     61  CE2      -38.1090  169.0630  -25.6590 C.ar   57  TRP57       0.0810
     62  CE3      -38.9380  166.8050  -25.8260 C.ar   57  TRP57       0.0012
     63  CZ2      -38.4860  169.1570  -24.3270 C.ar   57  TRP57       0.0191
     64  CZ3      -39.3250  166.9000  -24.4960 C.ar   57  TRP57       0.0001
     65  CH2      -39.0810  168.0620  -23.7720 C.ar   57  TRP57       0.0015
     66  N        -35.6990  168.3010  -30.8950 N.am   58  TRP58      -0.1976
     67  CA       -34.6700  169.2350  -31.3470 C.3    58  TRP58       0.1640
     68  C        -34.8180  169.6050  -32.8040 C.2    58  TRP58       0.2290
     69  O        -34.5770  170.7420  -33.2020 O.2    58  TRP58      -0.2864
     70  CB       -33.2990  168.6510  -31.0220 C.3    58  TRP58       0.0576
     71  CG       -32.9540  168.8330  -29.5720 C.ar   58  TRP58       0.0006
     72  CD1      -33.3880  169.8300  -28.7330 C.ar   58  TRP58       0.0946
     73  CD2      -32.0920  168.0050  -28.7840 C.ar   58  TRP58       0.0152
     74  NE1      -32.8500  169.6580  -27.4790 N.ar   58  TRP58      -0.2442
     75  CE2      -32.0470  168.5410  -27.4800 C.ar   58  TRP58       0.0810
     76  CE3      -31.3470  166.8470  -29.0480 C.ar   58  TRP58       0.0012
     77  CZ2      -31.2940  167.9670  -26.4560 C.ar   58  TRP58       0.0191
     78  CZ3      -30.6000  166.2660  -28.0440 C.ar   58  TRP58       0.0001
     79  CH2      -30.5880  166.8420  -26.7630 C.ar   58  TRP58       0.0015
     80  N        -37.0880  172.3100  -32.8730 N.3    61  VAL61      -0.1245
     81  CA       -36.4920  173.4880  -32.2460 C.3    61  VAL61       0.1561
     82  C        -35.8960  174.3520  -33.3470 C.2    61  VAL61       0.2260
     83  O        -36.1880  175.5520  -33.3310 O.2    61  VAL61      -0.2867
     84  CB       -35.4400  173.1400  -31.1970 C.3    61  VAL61       0.0252
     85  CG1      -34.7800  174.3990  -30.7180 C.3    61  VAL61       0.0019
     86  CG2      -36.1020  172.3840  -30.0510 C.3    61  VAL61       0.0019
     87  N        -38.9140  175.7290  -35.6090 N.3    64  GLU64      -0.1245
     88  CA       -39.4950  176.9120  -34.9860 C.3    64  GLU64       0.1567
     89  C        -38.6760  178.1690  -35.1540 C.2    64  GLU64       0.2260
     90  O        -39.2680  179.2420  -35.3270 O.2    64  GLU64      -0.2867
     91  CB       -39.7570  176.5440  -33.5060 C.3    64  GLU64       0.0388
     92  CG       -40.9640  175.6150  -33.4530 C.3    64  GLU64       0.1160
     93  CD       -41.2650  174.9120  -32.1620 C.2    64  GLU64       0.3649
     94  OE1      -40.4010  174.6790  -31.2920 O.co2  64  GLU64      -0.2457
     95  OE2      -42.4570  174.5380  -31.9930 O.co2  64  GLU64      -0.2457
     96  N        -37.9620  182.8680  -32.9310 N.3    70  HIS70      -0.1241
     97  CA       -36.7900  183.2220  -32.1880 C.3    70  HIS70       0.1621
     98  C        -36.4330  184.6880  -32.1470 C.2    70  HIS70       0.2264
     99  O        -35.3170  185.1110  -32.4830 O.2    70  HIS70      -0.2867
    100  CB       -35.5900  182.4930  -32.8490 C.3    70  HIS70       0.0745
    101  CG       -35.3770  181.1000  -32.3480 C.ar   70  HIS70       0.0817
    102  ND1      -34.1220  180.5960  -32.0500 N.ar   70  HIS70      -0.2268
    103  CD2      -36.2680  180.1140  -32.0880 C.ar   70  HIS70       0.1154
    104  CE1      -34.2930  179.3370  -31.6310 C.ar   70  HIS70       0.1986
    105  NE2      -35.5830  179.0000  -31.6410 N.ar   70  HIS70      -0.2212
    106  N        -36.5660  185.8380  -27.1800 N.3    74  VAL74      -0.1245
    107  CA       -36.5710  184.3720  -27.2710 C.3    74  VAL74       0.1561
    108  C        -35.1520  183.8440  -27.3810 C.2    74  VAL74       0.2260
    109  O        -34.7100  182.9260  -26.6530 O.2    74  VAL74      -0.2867
    110  CB       -37.4570  183.8530  -28.4060 C.3    74  VAL74       0.0252
    111  CG1      -37.3610  182.3330  -28.5920 C.3    74  VAL74       0.0019
    112  CG2      -38.9180  184.1710  -28.0660 C.3    74  VAL74       0.0019
    113  N        -33.1900  181.4480  -24.4020 N.3    78  LEU78      -0.1245
    114  CA       -32.5740  180.1680  -24.6930 C.3    78  LEU78       0.1561
    115  C        -31.1610  180.1610  -24.1570 C.2    78  LEU78       0.2260
    116  O        -30.7100  179.2610  -23.4510 O.2    78  LEU78      -0.2867
    117  CB       -32.6900  179.9080  -26.2140 C.3    78  LEU78       0.0270
    118  CG       -34.1130  179.4490  -26.6000 C.3    78  LEU78       0.0019
    119  CD1      -34.3610  179.3530  -28.0990 C.3    78  LEU78       0.0001
    120  CD2      -34.3920  178.1300  -25.8960 C.3    78  LEU78       0.0001
    121  N        -31.2460  179.8610  -20.2910 N.3    81  GLY81      -0.1210
    122  CA       -31.5430  178.4640  -19.8990 C.3    81  GLY81       0.1956
    123  C        -30.3180  177.5810  -19.9860 C.2    81  GLY81       0.2611
    124  O        -29.7720  176.9660  -19.0490 O.2    81  GLY81      -0.2717
    125  N        -29.7760  177.4800  -21.2150 N.am   82  PHE82      -0.1976
    126  CA       -28.5990  176.6630  -21.4620 C.3    82  PHE82       0.1639
    127  C        -27.4990  176.9630  -20.4650 C.2    82  PHE82       0.2290
    128  O        -26.7880  176.0480  -20.0230 O.2    82  PHE82      -0.2864
    129  CB       -28.0380  176.8950  -22.8860 C.3    82  PHE82       0.0560
    130  CG       -27.4070  175.5870  -23.2980 C.ar   82  PHE82      -0.0200
    131  CD1      -28.2040  174.5080  -23.6890 C.ar   82  PHE82      -0.0042
    132  CD2      -26.0380  175.4620  -23.2690 C.ar   82  PHE82      -0.0042
    133  CE1      -27.6020  173.3120  -24.0590 C.ar   82  PHE82      -0.0003
    134  CE2      -25.4550  174.2600  -23.6370 C.ar   82  PHE82      -0.0003
    135  CZ       -26.2280  173.2050  -24.0290 C.ar   82  PHE82      -0.0000
    136  N        -27.9660  175.0670  -17.4880 N.3    85  PHE85      -0.1241
    137  CA       -27.6680  173.6530  -17.7390 C.3    85  PHE85       0.1605
    138  C        -26.2100  173.3380  -17.4910 C.2    85  PHE85       0.2264
    139  O        -25.9370  172.3150  -16.8700 O.2    85  PHE85      -0.2867
    140  CB       -27.9020  173.2340  -19.1820 C.3    85  PHE85       0.0534
    141  CG       -27.6880  171.7930  -19.5250 C.ar   85  PHE85      -0.0203
    142  CD1      -28.6490  170.8410  -19.3250 C.ar   85  PHE85      -0.0042
    143  CD2      -26.5160  171.3710  -20.0900 C.ar   85  PHE85      -0.0042
    144  CE1      -28.4820  169.5030  -19.6420 C.ar   85  PHE85      -0.0003
    145  CE2      -26.2900  170.0440  -20.4300 C.ar   85  PHE85      -0.0003
    146  CZ       -27.2860  169.1030  -20.2040 C.ar   85  PHE85      -0.0000
    147  N        -22.4930  168.5890  -10.9050 N.3    92  PHE92      -0.1241
    148  CA       -22.5900  167.1200  -10.9120 C.3    92  PHE92       0.1605
    149  C        -21.2440  166.4880  -10.6770 C.2    92  PHE92       0.2264
    150  O        -21.0120  165.4960   -9.9960 O.2    92  PHE92      -0.2867
    151  CB       -23.0380  166.6610  -12.2820 C.3    92  PHE92       0.0534
    152  CG       -23.1680  165.2130  -12.5630 C.ar   92  PHE92      -0.0203
    153  CD1      -23.5870  164.2700  -11.6520 C.ar   92  PHE92      -0.0042
    154  CD2      -22.8890  164.7890  -13.8640 C.ar   92  PHE92      -0.0042
    155  CE1      -23.7020  162.9290  -12.0010 C.ar   92  PHE92      -0.0003
    156  CE2      -23.0180  163.4610  -14.2170 C.ar   92  PHE92      -0.0003
    157  CZ       -23.4080  162.5330  -13.2800 C.ar   92  PHE92      -0.0000
    158  N        -17.3000  159.8430  -16.5990 N.3   207  PHE207     -0.1241
    159  CA       -18.3730  160.8030  -16.8750 C.3   207  PHE207      0.1605
    160  C        -17.8700  161.8930  -17.7890 C.2   207  PHE207      0.2264
    161  O        -18.6100  162.4340  -18.6210 O.2   207  PHE207     -0.2867
    162  CB       -19.0050  161.3120  -15.5890 C.3   207  PHE207      0.0534
    163  CG       -20.1850  160.4350  -15.2430 C.ar  207  PHE207     -0.0203
    164  CD1      -21.1780  160.2060  -16.1860 C.ar  207  PHE207     -0.0042
    165  CD2      -20.2880  159.8460  -14.0030 C.ar  207  PHE207     -0.0042
    166  CE1      -22.2610  159.3940  -15.9000 C.ar  207  PHE207     -0.0003
    167  CE2      -21.3720  159.0490  -13.7070 C.ar  207  PHE207     -0.0003
    168  CZ       -22.3540  158.8140  -14.6480 C.ar  207  PHE207     -0.0000
@<TRIPOS>BOND
     1    87    88    1
     2    90    89    2
     3    89    88    1
     4    88    91    1
     5    91    92    1
     6    92    93    1
     7    82    83    2
     8    82    81    1
     9    69    68    2
    10    96    97    1
    11    80    81    1
    12   100   101    1
    13   100    97    1
    14    68    67    1
    15    99    98    2
    16   101   103   ar
    17   101   102   ar
    18    81    84    1
    19    97    98    1
    20    93    95   ar
    21    93    94   ar
    22   103   105   ar
    23   102   104   ar
    24   105   104   ar
    25    67    70    1
    26    67    66    1
    27    52    53    1
    28    84    85    1
    29    84    86    1
    30    70    71    1
    31    55    54    2
    32    66    54   am
    33     9    10   ar
    34     9     7   ar
    35    54    53    1
    36    10     8   ar
    37    53    56    1
    38    47    46    2
    39     7     6   ar
    40    46    45    1
    41     8     6   ar
    42    71    73   ar
    43    71    72   ar
    44     6     5    1
    45    18    16    1
    46    76    73   ar
    47    76    78   ar
    48    56    57    1
    49    73    75   ar
    50    72    74   ar
    51    44    45    1
    52    45    48    1
    53    13    12    1
    54    13    14    2
    55   111   110    1
    56    12    15    1
    57    12    11    1
    58     5     2    1
    59   110   112    1
    60   110   107    1
    61   119   118    1
    62    78    79   ar
    63     2     3    1
    64     2     1    1
    65    48    49    1
    66    16    15    1
    67    16    17    1
    68    57    58   ar
    69    57    59   ar
    70    58    60   ar
    71    75    74   ar
    72    75    77   ar
    73   108   107    1
    74   108   109    2
    75     3     4    1
    76   107   106    1
    77    40    39    2
    78    39    38    1
    79    51    50    1
    80    79    77   ar
    81    37    38    1
    82   118   117    1
    83   118   120    1
    84    49    50    1
    85    60    61   ar
    86    59    62   ar
    87    59    61   ar
    88   117   114    1
    89    38    41    1
    90    62    64   ar
    91    61    63   ar
    92    41    42    1
    93    41    43    1
    94   114   113    1
    95   114   115    1
    96    19    20    1
    97    64    65   ar
    98    63    65   ar
    99   115   116    2
   100   133   135   ar
   101   133   131   ar
   102   135   134   ar
   103    23    20    1
   104    20    21    1
   105   131   130   ar
   106   134   132   ar
   107   130   132   ar
   108   130   129    1
   109   129   126    1
   110    21    22    2
   111   126   125    1
   112   126   127    1
   113   125   123   am
   114    24    25    1
   115   127   128    2
   116   145   146   ar
   117   145   143   ar
   118   121   122    1
   119   146   144   ar
   120   143   141   ar
   121    25    28    1
   122    25    26    1
   123   123   122    1
   124   123   124    2
   125   144   142   ar
   126   141   142   ar
   127   141   140    1
   128   140   137    1
   129    26    27    2
   130   161   160    2
   131    29    30    1
   132   160   159    1
   133   137   138    1
   134   137   136    1
   135   138   139    2
   136   159   158    1
   137   159   162    1
   138    30    31    1
   139    30    33    1
   140    36    34    1
   141    34    33    1
   142    34    35    1
   143    31    32    1
   144   164   166   ar
   145   164   163   ar
   146   166   168   ar
   147   162   163    1
   148   163   165   ar
   149   168   167   ar
   150   156   154   ar
   151   156   157   ar
   152   165   167   ar
   153   154   152   ar
   154   157   155   ar
   155   152   151    1
   156   152   153   ar
   157   151   148    1
   158   155   153   ar
   159   148   147    1
   160   148   149    1
   161   149   150    2
