@<TRIPOS>MOLECULE
tmp/1m56C04.pdb
 126 120 0 0 0
SMALL
GASTEIGER

@<TRIPOS>ATOM
      1  N        -32.6010  185.2510  -26.2660 N.3    76  LEU76      -0.1245
      2  CA       -31.8530  185.4820  -25.0250 C.3    76  LEU76       0.1561
      3  C        -32.3730  184.5070  -23.9720 C.2    76  LEU76       0.2260
      4  O        -31.6560  184.0930  -23.0610 O.2    76  LEU76      -0.2867
      5  CB       -31.9810  186.8910  -24.4910 C.3    76  LEU76       0.0270
      6  CG       -31.1440  187.0940  -23.2100 C.3    76  LEU76       0.0019
      7  CD1      -29.6640  187.1480  -23.5590 C.3    76  LEU76       0.0001
      8  CD2      -31.6300  188.3400  -22.4740 C.3    76  LEU76       0.0001
      9  N        -30.3890  181.2010  -24.4470 N.3    79  ARG79      -0.1245
     10  CA       -29.0030  181.3120  -24.0040 C.3    79  ARG79       0.1563
     11  C        -28.8580  181.1960  -22.4930 C.2    79  ARG79       0.2260
     12  O        -27.9510  180.5440  -21.9920 O.2    79  ARG79      -0.2867
     13  CB       -28.4370  182.6550  -24.4390 C.3    79  ARG79       0.0307
     14  CG       -28.4250  182.7620  -25.9670 C.3    79  ARG79       0.0489
     15  CD       -28.2940  184.2550  -26.2660 C.3    79  ARG79       0.2205
     16  NE       -27.0440  184.7350  -25.6810 N.pl3  79  ARG79      -0.0865
     17  CZ       -26.5940  185.9800  -25.9090 C.cat  79  ARG79       0.5346
     18  NH1      -27.2830  186.8110  -26.6760 N.pl3  79  ARG79       0.1354
     19  NH2      -25.4390  186.3370  -25.3470 N.pl3  79  ARG79       0.1354
     20  N        -27.2820  178.1990  -20.0600 N.3    83  ILE83      -0.1245
     21  CA       -26.2050  178.4930  -19.1290 C.3    83  ILE83       0.1561
     22  C        -26.5330  177.9060  -17.7750 C.2    83  ILE83       0.2260
     23  O        -25.6030  177.5900  -17.0320 O.2    83  ILE83      -0.2867
     24  CB       -25.9160  179.9920  -19.0090 C.3    83  ILE83       0.0252
     25  CG1      -25.6150  180.5250  -20.4080 C.3    83  ILE83       0.0019
     26  CG2      -24.6730  180.2130  -18.1240 C.3    83  ILE83       0.0019
     27  CD1      -24.8530  181.8160  -20.5510 C.3    83  ILE83       0.0001
     28  N        -25.2740  174.1560  -17.9370 N.3    86  ILE86      -0.1231
     29  CA       -23.8530  173.9180  -17.6850 C.3    86  ILE86       0.1692
     30  C        -23.5060  174.2060  -16.2280 C.2    86  ILE86       0.2591
     31  O        -22.4680  173.7350  -15.7340 O.2    86  ILE86      -0.2718
     32  CB       -23.0130  174.8340  -18.5760 C.3    86  ILE86       0.0266
     33  CG1      -23.0480  174.4090  -20.0380 C.3    86  ILE86       0.0019
     34  CG2      -21.5650  174.9100  -18.1110 C.3    86  ILE86       0.0020
     35  CD1      -22.4130  175.4210  -20.9720 C.3    86  ILE86       0.0001
     36  N        -24.3280  174.9700  -15.4990 N.am   87  MET87      -0.1979
     37  CA       -24.0450  175.2370  -14.0980 C.3    87  MET87       0.1605
     38  C        -24.4950  173.9720  -13.3610 C.2    87  MET87       0.2287
     39  O        -23.7420  173.4660  -12.5050 O.2    87  MET87      -0.2864
     40  CB       -24.7370  176.4310  -13.4780 C.3    87  MET87       0.0413
     41  CG       -24.2190  177.7590  -13.9670 C.3    87  MET87       0.0598
     42  SD       -24.9640  179.1630  -13.1140 S.3    87  MET87      -0.1393
     43  CE       -26.6410  178.5610  -13.0290 C.3    87  MET87       0.0692
     44  N        -21.7150  171.3850  -14.0110 N.3    90  VAL90      -0.1245
     45  CA       -20.5990  171.6550  -13.0910 C.3    90  VAL90       0.1561
     46  C        -20.8230  171.1180  -11.6890 C.2    90  VAL90       0.2260
     47  O        -19.9190  170.4480  -11.1960 O.2    90  VAL90      -0.2867
     48  CB       -20.3520  173.1690  -12.9280 C.3    90  VAL90       0.0252
     49  CG1      -19.6770  173.3080  -11.5860 C.3    90  VAL90       0.0019
     50  CG2      -19.5670  173.7020  -14.0950 C.3    90  VAL90       0.0019
     51  N        -13.4800  177.5580  -31.5870 N.3   148  THR148     -0.1218
     52  CA       -13.6660  178.9840  -31.3240 C.3   148  THR148      0.1862
     53  C        -13.4120  179.7880  -32.5850 C.2   148  THR148      0.2287
     54  O        -14.1030  180.7360  -32.9560 O.2   148  THR148     -0.2866
     55  CB       -12.7590  179.4600  -30.1820 C.3   148  THR148      0.1770
     56  OG1      -13.4670  179.2510  -28.9470 O.3   148  THR148     -0.2211
     57  CG2      -12.3540  180.8960  -30.3770 C.3   148  THR148      0.0375
     58  N        -16.3250  179.9280  -34.7220 N.3   151  HIS151     -0.1241
     59  CA       -17.2820  180.8420  -34.0980 C.3   151  HIS151      0.1621
     60  C        -16.9900  182.2770  -34.5260 C.2   151  HIS151      0.2264
     61  O        -17.7790  182.9530  -35.1850 O.2   151  HIS151     -0.2867
     62  CB       -17.1480  180.7480  -32.5730 C.3   151  HIS151      0.0745
     63  CG       -18.1480  181.5460  -31.8100 C.ar  151  HIS151      0.0817
     64  ND1      -19.4400  181.6950  -32.2570 N.ar  151  HIS151     -0.2268
     65  CD2      -18.0700  182.2290  -30.6460 C.ar  151  HIS151      0.1154
     66  CE1      -20.1140  182.4450  -31.3920 C.ar  151  HIS151      0.1986
     67  NE2      -19.3050  182.7860  -30.3980 N.ar  151  HIS151     -0.2212
     68  N        -23.6350  179.0650  -30.3920 N.3   240  GLU240     -0.1245
     69  CA       -23.1730  179.6300  -29.1200 C.3   240  GLU240      0.1567
     70  C        -23.1720  178.5640  -28.0220 C.2   240  GLU240      0.2260
     71  O        -22.2430  178.5520  -27.2100 O.2   240  GLU240     -0.2867
     72  CB       -24.0000  180.8320  -28.6930 C.3   240  GLU240      0.0388
     73  CG       -23.9320  182.0610  -29.5740 C.3   240  GLU240      0.1160
     74  CD       -25.1050  183.0290  -29.4500 C.2   240  GLU240      0.3649
     75  OE1      -25.9630  182.9200  -28.5470 O.co2 240  GLU240     -0.2457
     76  OE2      -25.1300  183.9240  -30.3180 O.co2 240  GLU240     -0.2457
     77  N        -20.2050  175.9130  -28.6400 N.3   243  ILE243     -0.1231
     78  CA       -18.9040  176.4430  -28.2020 C.3   243  ILE243      0.1692
     79  C        -18.7790  176.6140  -26.7150 C.2   243  ILE243      0.2592
     80  O        -17.7160  176.3680  -26.1770 O.2   243  ILE243     -0.2718
     81  CB       -18.6620  177.7460  -28.9400 C.3   243  ILE243      0.0266
     82  CG1      -18.4810  177.2850  -30.4170 C.3   243  ILE243      0.0019
     83  CG2      -17.4520  178.4920  -28.4260 C.3   243  ILE243      0.0020
     84  CD1      -19.0570  178.3820  -31.2710 C.3   243  ILE243      0.0001
     85  N        -19.8210  177.0620  -26.0370 N.am  244  TRP244     -0.1976
     86  CA       -19.7970  177.2340  -24.5860 C.3   244  TRP244      0.1640
     87  C        -19.6490  175.8670  -23.9160 C.2   244  TRP244      0.2290
     88  O        -18.7960  175.6250  -23.0600 O.2   244  TRP244     -0.2864
     89  CB       -21.1010  177.8730  -24.1300 C.3   244  TRP244      0.0576
     90  CG       -21.2400  179.3540  -24.2750 C.ar  244  TRP244      0.0006
     91  CD1      -20.2470  180.2490  -24.4560 C.ar  244  TRP244      0.0946
     92  CD2      -22.4650  180.1040  -24.2350 C.ar  244  TRP244      0.0152
     93  NE1      -20.7710  181.5260  -24.5300 N.ar  244  TRP244     -0.2442
     94  CE2      -22.1270  181.4550  -24.4010 C.ar  244  TRP244      0.0810
     95  CE3      -23.8110  179.7540  -24.0790 C.ar  244  TRP244      0.0012
     96  CZ2      -23.0600  182.4770  -24.4200 C.ar  244  TRP244      0.0191
     97  CZ3      -24.7370  180.7640  -24.0960 C.ar  244  TRP244      0.0001
     98  CH2      -24.3600  182.0980  -24.2620 C.ar  244  TRP244      0.0015
     99  N        -16.1290  174.1350  -24.4530 N.3   247  HIS247     -0.1226
    100  CA       -15.2890  174.7690  -23.4530 C.3   247  HIS247      0.1752
    101  C        -15.4630  174.2700  -22.0290 C.2   247  HIS247      0.2596
    102  O        -14.5440  174.5100  -21.2520 O.2   247  HIS247     -0.2718
    103  CB       -15.6250  176.2690  -23.4620 C.3   247  HIS247      0.0759
    104  CG       -14.8160  176.9500  -24.5260 C.ar  247  HIS247      0.0818
    105  ND1      -13.7190  177.7290  -24.1960 N.ar  247  HIS247     -0.2268
    106  CD2      -14.9330  176.9610  -25.8740 C.ar  247  HIS247      0.1154
    107  CE1      -13.2110  178.2020  -25.3290 C.ar  247  HIS247      0.1986
    108  NE2      -13.9210  177.7610  -26.3600 N.ar  247  HIS247     -0.2212
    109  N        -16.6360  173.7820  -21.6570 N.am  248  PHE248     -0.1976
    110  CA       -16.9120  173.3250  -20.3010 C.3   248  PHE248      0.1639
    111  C        -16.2610  171.9490  -20.2080 C.2   248  PHE248      0.2290
    112  O        -15.5200  171.5730  -19.2900 O.2   248  PHE248     -0.2864
    113  CB       -18.4330  173.2630  -20.0860 C.3   248  PHE248      0.0560
    114  CG       -18.7490  172.3270  -18.9650 C.ar  248  PHE248     -0.0200
    115  CD1      -18.4190  172.6560  -17.6670 C.ar  248  PHE248     -0.0042
    116  CD2      -19.3760  171.1320  -19.2500 C.ar  248  PHE248     -0.0042
    117  CE1      -18.7390  171.7930  -16.6440 C.ar  248  PHE248     -0.0003
    118  CE2      -19.6910  170.2310  -18.2260 C.ar  248  PHE248     -0.0003
    119  CZ       -19.3720  170.5820  -16.9150 C.ar  248  PHE248     -0.0000
    120  N        -12.6570  172.5220  -19.6880 N.3   251  VAL251     -0.1245
    121  CA       -12.3980  173.0010  -18.3330 C.3   251  VAL251      0.1561
    122  C        -12.5160  171.8790  -17.2970 C.2   251  VAL251      0.2260
    123  O        -11.8200  171.9070  -16.2810 O.2   251  VAL251     -0.2867
    124  CB       -13.3820  174.1000  -17.9160 C.3   251  VAL251      0.0252
    125  CG1      -13.1360  174.4750  -16.4750 C.3   251  VAL251      0.0019
    126  CG2      -13.1220  175.3030  -18.8160 C.3   251  VAL251      0.0019
@<TRIPOS>BOND
     1    61    60    2
     2    58    59    1
     3    60    59    1
     4    59    62    1
     5    54    53    2
     6    53    52    1
     7    62    63    1
     8    64    63   ar
     9    64    66   ar
    10    63    65   ar
    11    51    52    1
    12    66    67   ar
    13    52    55    1
    14    84    82    1
    15    65    67   ar
    16    82    81    1
    17    68    69    1
    18    57    55    1
    19    76    74   ar
    20    55    56    1
    21    73    74    1
    22    73    72    1
    23    74    75   ar
    24    69    72    1
    25    69    70    1
    26    81    83    1
    27    81    78    1
    28    77    78    1
    29    78    79    1
    30    70    71    2
    31    79    80    2
    32    79    85   am
    33    18    17    1
    34   108   106   ar
    35   108   107   ar
    36    15    14    1
    37    15    16    1
    38     1     2    1
    39    85    86    1
    40    14    13    1
    41    17    16    2
    42    17    19    1
    43   106   104   ar
    44   107   105   ar
    45     2     5    1
    46     2     3    1
    47    86    89    1
    48    86    87    1
    49    93    91   ar
    50    93    94   ar
    51   104   105   ar
    52   104   103    1
    53     5     6    1
    54    91    90   ar
    55    99   100    1
    56     9    10    1
    57    13    10    1
    58    96    94   ar
    59    96    98   ar
    60    94    92   ar
    61    90    92   ar
    62    90    89    1
    63    98    97   ar
    64    92    95   ar
    65    97    95   ar
    66    10    11    1
    67     3     4    2
    68    87    88    2
    69     7     6    1
    70   103   100    1
    71   100   101    1
    72     6     8    1
    73    11    12    2
    74   101   109   am
    75   101   102    2
    76   109   110    1
    77    35    33    1
    78    27    25    1
    79    25    24    1
    80   110   111    1
    81   110   113    1
    82   111   112    2
    83   113   114    1
    84    20    21    1
    85    33    32    1
    86   120   121    1
    87   116   114   ar
    88   116   118   ar
    89    21    24    1
    90    21    22    1
    91    24    26    1
    92   114   115   ar
    93   126   124    1
    94    32    34    1
    95    32    29    1
    96   121   124    1
    97   121   122    1
    98   118   119   ar
    99    28    29    1
   100   124   125    1
   101    22    23    2
   102    29    30    1
   103   115   117   ar
   104   122   123    2
   105   119   117   ar
   106    30    31    2
   107    30    36   am
   108    36    37    1
   109    37    40    1
   110    37    38    1
   111    50    48    1
   112    44    45    1
   113    41    40    1
   114    41    42    1
   115    38    39    2
   116    42    43    1
   117    45    48    1
   118    45    46    1
   119    48    49    1
   120    46    47    2
