@<TRIPOS>MOLECULE
tmp/1m5bB00.pdb
 164 158 0 0 0
SMALL
GASTEIGER

@<TRIPOS>ATOM
      1  N         74.7210   69.3270   51.7050 N.3    10  GLU10      -0.1245
      2  CA        73.7980   69.4510   50.5850 C.3    10  GLU10       0.1567
      3  C         74.2210   70.6780   49.7750 C.2    10  GLU10       0.2260
      4  O         74.2110   71.7920   50.2940 O.2    10  GLU10      -0.2867
      5  CB        72.3860   69.6570   51.1450 C.3    10  GLU10       0.0388
      6  CG        71.2430   69.5140   50.1670 C.3    10  GLU10       0.1160
      7  CD        70.9140   68.0690   49.8680 C.2    10  GLU10       0.3649
      8  OE1       71.6040   67.4700   49.0210 O.co2  10  GLU10      -0.2457
      9  OE2       69.9690   67.5310   50.4880 O.co2  10  GLU10      -0.2457
     10  N         74.1390   74.5190   49.8000 N.3    13  TYR13      -0.1241
     11  CA        73.9570   75.0230   51.1600 C.3    13  TYR13       0.1605
     12  C         75.2100   74.8520   52.0050 C.2    13  TYR13       0.2264
     13  O         75.6820   75.8080   52.6140 O.2    13  TYR13      -0.2867
     14  CB        72.7660   74.3230   51.8070 C.3    13  TYR13       0.0534
     15  CG        71.4770   74.6100   51.0730 C.ar   13  TYR13      -0.0201
     16  CD1       70.7990   75.8130   51.2650 C.ar   13  TYR13      -0.0009
     17  CD2       70.9640   73.7020   50.1510 C.ar   13  TYR13      -0.0009
     18  CE1       69.6390   76.1080   50.5550 C.ar   13  TYR13       0.0417
     19  CE2       69.8040   73.9880   49.4310 C.ar   13  TYR13       0.0417
     20  CZ        69.1500   75.1910   49.6400 C.ar   13  TYR13       0.1957
     21  OH        68.0070   75.4770   48.9350 O.3    13  TYR13      -0.2866
     22  N         67.3240   64.7880   57.3250 N.3    58  TYR58      -0.1241
     23  CA        66.6900   66.0390   57.7140 C.3    58  TYR58       0.1605
     24  C         65.9490   65.8650   59.0410 C.2    58  TYR58       0.2264
     25  O         66.1440   66.6430   59.9730 O.2    58  TYR58      -0.2867
     26  CB        65.7440   66.5270   56.6100 C.3    58  TYR58       0.0534
     27  CG        66.4900   67.1500   55.4440 C.ar   58  TYR58      -0.0201
     28  CD1       67.0400   66.3630   54.4300 C.ar   58  TYR58      -0.0009
     29  CD2       66.6980   68.5280   55.3910 C.ar   58  TYR58      -0.0009
     30  CE1       67.7820   66.9340   53.3940 C.ar   58  TYR58       0.0417
     31  CE2       67.4390   69.1050   54.3660 C.ar   58  TYR58       0.0417
     32  CZ        67.9780   68.3080   53.3730 C.ar   58  TYR58       0.1957
     33  OH        68.7270   68.8930   52.3730 O.3    58  TYR58      -0.2866
     34  N         68.6640   73.8090   54.9820 N.3    86  PRO86      -0.2102
     35  CA        67.4190   73.8970   54.2120 C.3    86  PRO86       0.1504
     36  C         66.3960   72.9380   54.8240 C.2    86  PRO86       0.2576
     37  O         65.9660   71.9720   54.1920 O.2    86  PRO86      -0.2718
     38  CB        67.8560   73.4910   52.8060 C.3    86  PRO86       0.0282
     39  CG        68.9830   72.5210   53.0710 C.3    86  PRO86       0.0208
     40  CD        69.7450   73.2110   54.1750 C.3    86  PRO86       0.0893
     41  N         66.0370   73.2130   56.0760 N.am   87  LEU87      -0.1966
     42  CA        65.0830   72.4020   56.8290 C.3    87  LEU87       0.1728
     43  C         63.6870   72.9890   56.6760 C.2    87  LEU87       0.2616
     44  O         63.4330   74.1330   57.0550 O.2    87  LEU87      -0.2715
     45  CB        65.4820   72.3770   58.3030 C.3    87  LEU87       0.0311
     46  CG        64.7290   71.4400   59.2420 C.3    87  LEU87       0.0022
     47  CD1       64.8860   69.9930   58.7810 C.3    87  LEU87       0.0001
     48  CD2       65.2720   71.6300   60.6580 C.3    87  LEU87       0.0001
     49  N         62.7840   72.1850   56.1350 N.am   88  THR88      -0.1951
     50  CA        61.4200   72.6130   55.8770 C.3    88  THR88       0.1897
     51  C         60.5680   72.7580   57.1320 C.2    88  THR88       0.2313
     52  O         60.5420   71.8800   57.9900 O.2    88  THR88      -0.2863
     53  CB        60.7420   71.6370   54.8950 C.3    88  THR88       0.1794
     54  OG1       61.5700   71.5010   53.7280 O.3    88  THR88      -0.2208
     55  CG2       59.3630   72.1600   54.4660 C.3    88  THR88       0.0378
     56  N         57.0190   69.0610   62.9060 N.3    93  ARG93      -0.1245
     57  CA        58.3020   69.4910   63.4390 C.3    93  ARG93       0.1563
     58  C         58.1290   70.6620   64.3960 C.2    93  ARG93       0.2260
     59  O         58.7190   70.6780   65.4770 O.2    93  ARG93      -0.2867
     60  CB        59.2570   69.8800   62.3060 C.3    93  ARG93       0.0307
     61  CG        59.7960   68.6860   61.5300 C.3    93  ARG93       0.0489
     62  CD        60.5680   69.1230   60.2960 C.3    93  ARG93       0.2205
     63  NE        61.0980   67.9790   59.5520 N.pl3  93  ARG93      -0.0865
     64  CZ        61.6270   68.0520   58.3340 C.cat  93  ARG93       0.5346
     65  NH1       61.6970   69.2190   57.7070 N.pl3  93  ARG93       0.1354
     66  NH2       62.0950   66.9590   57.7420 N.pl3  93  ARG93       0.1354
     67  N         62.8060   61.5580   48.6750 N.3   135  LEU135     -0.1245
     68  CA        63.8560   61.3490   49.6600 C.3   135  LEU135      0.1561
     69  C         63.2420   60.6780   50.8840 C.2   135  LEU135      0.2260
     70  O         62.0670   60.8810   51.1860 O.2   135  LEU135     -0.2867
     71  CB        64.4470   62.6990   50.0810 C.3   135  LEU135      0.0270
     72  CG        65.4460   62.7020   51.2430 C.3   135  LEU135      0.0019
     73  CD1       66.7340   62.0070   50.8180 C.3   135  LEU135      0.0001
     74  CD2       65.7270   64.1400   51.6710 C.3   135  LEU135      0.0001
     75  N         62.1170   62.7350   54.9330 N.3   138  GLY138     -0.1210
     76  CA        61.9960   64.1500   54.6280 C.3   138  GLY138      0.1956
     77  C         60.5490   64.6160   54.6280 C.2   138  GLY138      0.2613
     78  O         59.6280   63.8200   54.8180 O.2   138  GLY138     -0.2717
     79  N         60.3450   65.9100   54.4030 N.am  139  SER139     -0.1938
     80  CA        59.0020   66.4840   54.3860 C.3   139  SER139      0.2055
     81  C         58.2120   66.1410   53.1230 C.2   139  SER139      0.2644
     82  O         56.9830   66.1510   53.1330 O.2   139  SER139     -0.2714
     83  CB        59.0830   68.0070   54.5510 C.3   139  SER139      0.2130
     84  OG        59.9560   68.5810   53.5930 O.3   139  SER139     -0.2179
     85  N         58.9080   65.8340   52.0320 N.am  140  THR140     -0.1936
     86  CA        58.2150   65.4970   50.7920 C.3   140  THR140      0.2028
     87  C         57.5150   64.1390   50.9020 C.2   140  THR140      0.2642
     88  O         56.3890   63.9710   50.4360 O.2   140  THR140     -0.2714
     89  CB        59.1840   65.4760   49.5950 C.3   140  THR140      0.1808
     90  OG1       59.7020   66.7980   49.3820 O.3   140  THR140     -0.2208
     91  CG2       58.4630   65.0120   48.3320 C.3   140  THR140      0.0379
     92  N         58.1730   63.1730   51.5310 N.am  141  LYS141     -0.1977
     93  CA        57.5690   61.8550   51.6840 C.3   141  LYS141      0.1596
     94  C         56.3170   61.9890   52.5450 C.2   141  LYS141      0.2287
     95  O         55.2890   61.3770   52.2610 O.2   141  LYS141     -0.2864
     96  CB        58.5600   60.8850   52.3370 C.3   141  LYS141      0.0298
     97  CG        58.1480   59.4210   52.2390 C.3   141  LYS141      0.0038
     98  CD        59.2140   58.5010   52.8050 C.3   141  LYS141      0.0206
     99  CE        58.8280   57.0410   52.6300 C.3   141  LYS141      0.1093
    100  NZ        59.8830   56.1330   53.1570 N.3   141  LYS141     -0.1314
    101  N         69.5260   63.4610   48.6310 N.3   171  THR171     -0.1218
    102  CA        69.1380   64.1760   47.4260 C.3   171  THR171      0.1862
    103  C         70.0660   63.7980   46.2790 C.2   171  THR171      0.2287
    104  O         69.6160   63.5620   45.1600 O.2   171  THR171     -0.2866
    105  CB        69.2060   65.6930   47.6510 C.3   171  THR171      0.1770
    106  OG1       68.3840   66.0370   48.7730 O.3   171  THR171     -0.2211
    107  CG2       68.7150   66.4410   46.4240 C.3   171  THR171      0.0375
    108  N         62.3810   62.3590   39.7410 N.3   187  TYR187     -0.1227
    109  CA        62.5730   62.5810   41.1680 C.3   187  TYR187      0.1736
    110  C         61.8090   63.7840   41.7070 C.2   187  TYR187      0.2595
    111  O         61.7970   64.8550   41.1040 O.2   187  TYR187     -0.2718
    112  CB        64.0730   62.7320   41.4540 C.3   187  TYR187      0.0548
    113  CG        64.4450   62.7920   42.9230 C.ar  187  TYR187     -0.0200
    114  CD1       64.1030   61.7590   43.7980 C.ar  187  TYR187     -0.0009
    115  CD2       65.1530   63.8760   43.4320 C.ar  187  TYR187     -0.0009
    116  CE1       64.4590   61.8120   45.1480 C.ar  187  TYR187      0.0417
    117  CE2       65.5150   63.9400   44.7780 C.ar  187  TYR187      0.0417
    118  CZ        65.1650   62.9060   45.6290 C.ar  187  TYR187      0.1957
    119  OH        65.5290   62.9730   46.9550 O.3   187  TYR187     -0.2866
    120  N         61.1690   63.5880   42.8540 N.am  188  LEU188     -0.1966
    121  CA        60.4030   64.6440   43.5000 C.3   188  LEU188      0.1728
    122  C         61.2670   65.2710   44.5830 C.2   188  LEU188      0.2616
    123  O         61.6680   64.5950   45.5330 O.2   188  LEU188     -0.2715
    124  CB        59.1280   64.0590   44.1150 C.3   188  LEU188      0.0311
    125  CG        58.0730   63.5880   43.1150 C.3   188  LEU188      0.0022
    126  CD1       57.1940   62.5150   43.7380 C.3   188  LEU188      0.0001
    127  CD2       57.2510   64.7840   42.6640 C.3   188  LEU188      0.0001
    128  N         61.5740   66.5560   44.4280 N.am  189  LEU189     -0.1963
    129  CA        62.3940   67.2710   45.4020 C.3   189  LEU189      0.1728
    130  C         61.9710   68.7330   45.4490 C.2   189  LEU189      0.2616
    131  O         61.1240   69.1700   44.6670 O.2   189  LEU189     -0.2715
    132  CB        63.8790   67.1660   45.0390 C.3   189  LEU189      0.0311
    133  CG        64.4160   68.0240   43.8870 C.3   189  LEU189      0.0022
    134  CD1       65.9320   67.8950   43.8430 C.3   189  LEU189      0.0001
    135  CD2       63.7990   67.5850   42.5630 C.3   189  LEU189      0.0001
    136  N         62.5640   69.5050   46.3500 N.am  190  GLU190     -0.1977
    137  CA        62.1670   70.8980   46.4580 C.3   190  GLU190      0.1602
    138  C         62.7090   71.7850   45.3330 C.2   190  GLU190      0.2287
    139  O         63.8380   71.6250   44.8590 O.2   190  GLU190     -0.2864
    140  CB        62.5000   71.4000   47.8640 C.3   190  GLU190      0.0415
    141  CG        61.6960   70.5870   48.8990 C.3   190  GLU190      0.1163
    142  CD        62.0950   70.8300   50.3380 C.2   190  GLU190      0.3649
    143  OE1       63.2760   71.1300   50.5840 O.co2 190  GLU190     -0.2457
    144  OE2       61.2210   70.6970   51.2280 O.co2 190  GLU190     -0.2457
    145  N         66.2350   73.5070   44.8190 N.3   193  MET193     -0.1245
    146  CA        67.2860   72.5150   44.6030 C.3   193  MET193      0.1570
    147  C         67.1950   72.0260   43.1570 C.2   193  MET193      0.2261
    148  O         68.2080   71.8780   42.4700 O.2   193  MET193     -0.2867
    149  CB        67.1010   71.3400   45.5650 C.3   193  MET193      0.0387
    150  CG        68.2110   70.3060   45.5280 C.3   193  MET193      0.0595
    151  SD        69.8450   71.0040   45.8820 S.3   193  MET193     -0.1393
    152  CE        70.8220   70.1040   44.7180 C.3   193  MET193      0.0692
    153  N         61.8050   77.3130   54.3410 N.3   217  TYR217     -0.1241
    154  CA        62.8650   76.7700   55.1780 C.3   217  TYR217      0.1605
    155  C         63.0280   77.7210   56.3480 C.2   217  TYR217      0.2264
    156  O         62.8970   78.9380   56.1970 O.2   217  TYR217     -0.2867
    157  CB        64.2040   76.7280   54.4410 C.3   217  TYR217      0.0534
    158  CG        64.2790   75.8000   53.2590 C.ar  217  TYR217     -0.0201
    159  CD1       63.6500   74.5530   53.2770 C.ar  217  TYR217     -0.0009
    160  CD2       65.0470   76.1360   52.1460 C.ar  217  TYR217     -0.0009
    161  CE1       63.7900   73.6610   52.2120 C.ar  217  TYR217      0.0417
    162  CE2       65.1970   75.2530   51.0790 C.ar  217  TYR217      0.0417
    163  CZ        64.5690   74.0230   51.1190 C.ar  217  TYR217      0.1957
    164  OH        64.7420   73.1460   50.0750 O.3   217  TYR217     -0.2866
@<TRIPOS>BOND
     1   108   109    1
     2   111   110    2
     3   109   112    1
     4   109   110    1
     5   112   113    1
     6   110   120   am
     7   148   147    2
     8   135   133    1
     9   127   125    1
    10   120   121    1
    11   113   115   ar
    12   113   114   ar
    13   125   126    1
    14   125   124    1
    15   147   146    1
    16   115   117   ar
    17   121   124    1
    18   121   122    1
    19   114   116   ar
    20   134   133    1
    21   133   132    1
    22   128   122   am
    23   128   129    1
    24   122   123    2
    25   146   145    1
    26   146   149    1
    27   131   130    2
    28   152   151    1
    29   117   118   ar
    30   139   138    2
    31   132   129    1
    32   116   118   ar
    33   104   103    2
    34   138   137    1
    35   129   130    1
    36   130   136   am
    37   150   149    1
    38   150   151    1
    39   118   119    1
    40   103   102    1
    41   136   137    1
    42   107   105    1
    43   137   140    1
    44   102   105    1
    45   102   101    1
    46   105   106    1
    47   140   141    1
    48    91    89    1
    49    67    68    1
    50   141   142    1
    51    21    20    1
    52     8     7   ar
    53    90    89    1
    54    19    20   ar
    55    19    17   ar
    56    89    86    1
    57    20    18   ar
    58    68    71    1
    59    68    69    1
    60     3     4    2
    61     3     2    1
    62    10    11    1
    63     7     6    1
    64     7     9   ar
    65   164   163    1
    66    71    72    1
    67    17    15   ar
    68     6     5    1
    69   142   143   ar
    70   142   144   ar
    71    88    87    2
    72    18    16   ar
    73     2     5    1
    74     2     1    1
    75    86    87    1
    76    86    85    1
    77    73    72    1
    78    69    70    2
    79    87    92   am
    80    15    16   ar
    81    15    14    1
    82   162   163   ar
    83   162   160   ar
    84   163   161   ar
    85    11    14    1
    86    11    12    1
    87    72    74    1
    88    92    93    1
    89    93    96    1
    90    93    94    1
    91    12    13    2
    92    85    81   am
    93   160   158   ar
    94   161   159   ar
    95    97    96    1
    96    97    98    1
    97    95    94    2
    98    33    32    1
    99    99    98    1
   100    99   100    1
   101    38    39    1
   102    38    35    1
   103    39    40    1
   104    81    82    2
   105    81    80    1
   106   158   159   ar
   107   158   157    1
   108    32    30   ar
   109    32    31   ar
   110    30    28   ar
   111    84    83    1
   112    54    53    1
   113    40    34    1
   114    37    36    2
   115    35    36    1
   116    35    34    1
   117   153   154    1
   118    31    29   ar
   119    80    79    1
   120    80    83    1
   121    79    77   am
   122    28    27   ar
   123   157   154    1
   124    55    53    1
   125    77    76    1
   126    77    78    2
   127    76    75    1
   128    36    41   am
   129    53    50    1
   130   154   155    1
   131    29    27   ar
   132    27    26    1
   133    50    49    1
   134    50    51    1
   135    41    42    1
   136    49    43   am
   137   156   155    2
   138    26    23    1
   139    43    42    1
   140    43    44    2
   141    42    45    1
   142    51    52    2
   143    22    23    1
   144    65    64    1
   145    23    24    1
   146    66    64    1
   147    45    46    1
   148    64    63    2
   149    47    46    1
   150    24    25    2
   151    46    48    1
   152    63    62    1
   153    62    61    1
   154    61    60    1
   155    60    57    1
   156    56    57    1
   157    57    58    1
   158    58    59    2
