@<TRIPOS>MOLECULE
tmp/1m5cA00.pdb
 149 143 0 0 0
SMALL
GASTEIGER

@<TRIPOS>ATOM
      1  N         32.0070   17.7640   15.5150 N.3    10  GLU10      -0.1245
      2  CA        32.9220   17.3480   14.4630 C.3    10  GLU10       0.1567
      3  C         32.1570   16.3400   13.6180 C.2    10  GLU10       0.2260
      4  O         31.7410   15.2980   14.1160 O.2    10  GLU10      -0.2867
      5  CB        34.1480   16.6830   15.0940 C.3    10  GLU10       0.0388
      6  CG        35.1930   16.1970   14.1010 C.3    10  GLU10       0.1160
      7  CD        36.0550   17.3190   13.5750 C.2    10  GLU10       0.3649
      8  OE1       36.1090   17.5010   12.3410 O.co2  10  GLU10      -0.2457
      9  OE2       36.6860   18.0160   14.3960 O.co2  10  GLU10      -0.2457
     10  N         40.1160   19.4990   21.6260 N.3    58  TYR58      -0.1241
     11  CA        40.2860   18.0860   21.9210 C.3    58  TYR58       0.1605
     12  C         41.0120   17.8790   23.2430 C.2    58  TYR58       0.2264
     13  O         40.5120   17.1810   24.1200 O.2    58  TYR58      -0.2867
     14  CB        41.0220   17.4080   20.7590 C.3    58  TYR58       0.0534
     15  CG        40.1040   17.1470   19.5860 C.ar   58  TYR58      -0.0201
     16  CD1       39.3760   15.9570   19.4990 C.ar   58  TYR58      -0.0009
     17  CD2       39.8990   18.1180   18.6050 C.ar   58  TYR58      -0.0009
     18  CE1       38.4660   15.7430   18.4730 C.ar   58  TYR58       0.0417
     19  CE2       38.9840   17.9110   17.5700 C.ar   58  TYR58       0.0417
     20  CZ        38.2720   16.7240   17.5160 C.ar   58  TYR58       0.1957
     21  OH        37.3460   16.5270   16.5210 O.3    58  TYR58      -0.2866
     22  N         35.9160   11.6870   18.6670 N.3    86  PRO86      -0.2102
     23  CA        37.0720   11.2100   17.8980 C.3    86  PRO86       0.1504
     24  C         38.3340   11.7470   18.5730 C.2    86  PRO86       0.2576
     25  O         39.0570   12.5790   18.0210 O.2    86  PRO86      -0.2718
     26  CB        36.8340   11.8070   16.5130 C.3    86  PRO86       0.0282
     27  CG        36.1090   13.0870   16.8210 C.3    86  PRO86       0.0208
     28  CD        35.1200   12.6440   17.8770 C.3    86  PRO86       0.0893
     29  N         38.5620   11.2700   19.7930 N.am   87  LEU87      -0.1966
     30  CA        39.7020   11.6780   20.6020 C.3    87  LEU87       0.1728
     31  C         40.8380   10.6840   20.4330 C.2    87  LEU87       0.2616
     32  O         40.7380    9.5200   20.8320 O.2    87  LEU87      -0.2715
     33  CB        39.2930   11.7580   22.0740 C.3    87  LEU87       0.0311
     34  CG        40.3470   12.2670   23.0610 C.3    87  LEU87       0.0022
     35  CD1       40.7150   13.7100   22.7220 C.3    87  LEU87       0.0001
     36  CD2       39.7950   12.1780   24.4820 C.3    87  LEU87       0.0001
     37  N         41.9250   11.1600   19.8430 N.am   88  THR88      -0.1951
     38  CA        43.0860   10.3290   19.5800 C.3    88  THR88       0.1897
     39  C         43.8510    9.9060   20.8230 C.2    88  THR88       0.2313
     40  O         44.1540   10.7190   21.6930 O.2    88  THR88      -0.2863
     41  CB        44.0440   11.0560   18.6320 C.3    88  THR88       0.1794
     42  OG1       43.3250   11.4410   17.4560 O.3    88  THR88      -0.2208
     43  CG2       45.2090   10.1470   18.2400 C.3    88  THR88       0.0378
     44  N         48.3540   12.1680   26.6410 N.3    93  ARG93      -0.1245
     45  CA        47.0010   12.0940   27.1900 C.3    93  ARG93       0.1563
     46  C         46.8270   10.8540   28.0540 C.2    93  ARG93       0.2260
     47  O         46.2010   10.9050   29.1120 O.2    93  ARG93      -0.2867
     48  CB        45.9620   12.0860   26.0680 C.3    93  ARG93       0.0307
     49  CG        45.8320   13.4190   25.3630 C.3    93  ARG93       0.0489
     50  CD        44.9290   13.3110   24.1490 C.3    93  ARG93       0.2205
     51  NE        44.8020   14.5930   23.4640 N.pl3  93  ARG93      -0.0865
     52  CZ        44.3270   14.7270   22.2320 C.cat  93  ARG93       0.5346
     53  NH1       43.9430   13.6550   21.5570 N.pl3  93  ARG93       0.1354
     54  NH2       44.2250   15.9300   21.6790 N.pl3  93  ARG93       0.1354
     55  N         45.1080   21.4150   11.5670 N.3   135  LEU135     -0.1245
     56  CA        44.2050   22.0860   12.4920 C.3   135  LEU135      0.1561
     57  C         45.1570   22.8700   13.4060 C.2   135  LEU135      0.2260
     58  O         46.3040   22.4590   13.5850 O.2   135  LEU135     -0.2867
     59  CB        43.4200   21.0400   13.2870 C.3   135  LEU135      0.0270
     60  CG        42.2530   21.5100   14.1510 C.3   135  LEU135      0.0019
     61  CD1       41.1520   22.0960   13.2670 C.3   135  LEU135      0.0001
     62  CD2       41.7240   20.3250   14.9540 C.3   135  LEU135      0.0001
     63  N         45.3360   22.9740   16.4030 N.3   137  SER137     -0.1202
     64  CA        45.4800   22.2740   17.6720 C.3   137  SER137      0.2020
     65  C         45.1520   20.8050   17.4450 C.2   137  SER137      0.2619
     66  O         44.6530   20.4350   16.3840 O.2   137  SER137     -0.2717
     67  CB        44.5300   22.8620   18.7160 C.3   137  SER137      0.2103
     68  OG        43.1860   22.7630   18.2880 O.3   137  SER137     -0.2182
     69  N         45.4380   19.9700   18.4360 N.am  138  GLY138     -0.1942
     70  CA        45.1530   18.5530   18.2970 C.3   138  GLY138      0.2014
     71  C         46.3530   17.7000   17.9410 C.2   138  GLY138      0.2640
     72  O         47.4430   18.2150   17.6850 O.2   138  GLY138     -0.2714
     73  N         46.1380   16.3880   17.8980 N.am  139  SER139     -0.1935
     74  CA        47.2020   15.4290   17.6190 C.3   139  SER139      0.2055
     75  C         47.9120   15.5060   16.2670 C.2   139  SER139      0.2643
     76  O         49.0550   15.0660   16.1490 O.2   139  SER139     -0.2714
     77  CB        46.6830   13.9990   17.8420 C.3   139  SER139      0.2130
     78  OG        45.5420   13.7210   17.0430 O.3   139  SER139     -0.2179
     79  N         47.2620   16.0440   15.2410 N.am  140  THR140     -0.1950
     80  CA        47.9300   16.1190   13.9470 C.3   140  THR140      0.1897
     81  C         48.9840   17.2200   13.9650 C.2   140  THR140      0.2313
     82  O         50.1170   17.0180   13.5220 O.2   140  THR140     -0.2863
     83  CB        46.9310   16.3660   12.8000 C.3   140  THR140      0.1794
     84  OG1       46.0320   15.2540   12.7080 O.3   140  THR140     -0.2208
     85  CG2       47.6620   16.5070   11.4780 C.3   140  THR140      0.0378
     86  N         37.8300   21.6730   11.2310 N.3   171  THR171     -0.1218
     87  CA        37.9520   20.8530   10.0370 C.3   171  THR171      0.1862
     88  C         37.1950   21.5380    8.9040 C.2   171  THR171      0.2287
     89  O         37.6740   21.6070    7.7750 O.2   171  THR171     -0.2866
     90  CB        37.3520   19.4580   10.2720 C.3   171  THR171      0.1770
     91  OG1       38.0560   18.8170   11.3420 O.3   171  THR171     -0.2211
     92  CG2       37.4550   18.6110    9.0080 C.3   171  THR171      0.0375
     93  N         45.3210   20.0500    2.7350 N.3   187  TYR187     -0.1227
     94  CA        45.0640   19.9650    4.1680 C.3   187  TYR187      0.1736
     95  C         45.4550   18.6150    4.7650 C.2   187  TYR187      0.2595
     96  O         45.1370   17.5670    4.2150 O.2   187  TYR187     -0.2718
     97  CB        43.5740   20.2540    4.4210 C.3   187  TYR187      0.0548
     98  CG        43.1950   20.4530    5.8710 C.ar  187  TYR187     -0.0200
     99  CD1       43.8780   21.3700    6.6700 C.ar  187  TYR187     -0.0009
    100  CD2       42.1480   19.7290    6.4460 C.ar  187  TYR187     -0.0009
    101  CE1       43.5330   21.5590    8.0040 C.ar  187  TYR187      0.0417
    102  CE2       41.7950   19.9120    7.7820 C.ar  187  TYR187      0.0417
    103  CZ        42.4960   20.8290    8.5540 C.ar  187  TYR187      0.1957
    104  OH        42.1710   21.0110    9.8760 O.3   187  TYR187     -0.2866
    105  N         46.1650   18.6550    5.8880 N.am  188  LEU188     -0.1966
    106  CA        46.5910   17.4420    6.5710 C.3   188  LEU188      0.1728
    107  C         45.6300   17.2130    7.7250 C.2   188  LEU188      0.2616
    108  O         45.5100   18.0510    8.6160 O.2   188  LEU188     -0.2715
    109  CB        48.0190   17.6060    7.0930 C.3   188  LEU188      0.0311
    110  CG        49.0880   17.6350    5.9980 C.3   188  LEU188      0.0022
    111  CD1       50.3280   18.3780    6.4800 C.3   188  LEU188      0.0001
    112  CD2       49.4270   16.2060    5.6020 C.3   188  LEU188      0.0001
    113  N         44.9370   16.0810    7.7000 N.am  189  LEU189     -0.1963
    114  CA        43.9730   15.7680    8.7470 C.3   189  LEU189      0.1728
    115  C         43.8410   14.2600    8.9030 C.2   189  LEU189      0.2616
    116  O         44.4460   13.4950    8.1540 O.2   189  LEU189     -0.2715
    117  CB        42.6080   16.3810    8.4090 C.3   189  LEU189      0.0311
    118  CG        41.7620   15.7050    7.3280 C.3   189  LEU189      0.0022
    119  CD1       40.4350   16.4370    7.2040 C.3   189  LEU189      0.0001
    120  CD2       42.4920   15.7020    5.9930 C.3   189  LEU189      0.0001
    121  N         43.0490   13.8270    9.8760 N.am  190  GLU190     -0.1977
    122  CA        42.8880   12.3980   10.1060 C.3   190  GLU190      0.1602
    123  C         42.0860   11.7300    8.9880 C.2   190  GLU190      0.2287
    124  O         41.1120   12.2850    8.4790 O.2   190  GLU190     -0.2864
    125  CB        42.2850   12.1840   11.4960 C.3   190  GLU190      0.0415
    126  CG        43.1860   12.8310   12.5610 C.3   190  GLU190      0.1163
    127  CD        42.7080   12.6540   13.9860 C.2   190  GLU190      0.3649
    128  OE1       41.4890   12.7480   14.2300 O.co2 190  GLU190     -0.2457
    129  OE2       43.5660   12.4420   14.8710 O.co2 190  GLU190     -0.2457
    130  N         38.1470   11.7220    8.9620 N.3   193  MET193     -0.1245
    131  CA        37.4470   12.9300    8.5260 C.3   193  MET193      0.1570
    132  C         37.6000   13.1180    7.0220 C.2   193  MET193      0.2261
    133  O         36.6590   13.5120    6.3350 O.2   193  MET193     -0.2867
    134  CB        37.9800   14.1700    9.2530 C.3   193  MET193      0.0387
    135  CG        37.5220   14.2980   10.7040 C.3   193  MET193      0.0595
    136  SD        38.3010   13.0950   11.7960 S.3   193  MET193     -0.1393
    137  CE        37.9860   13.8420   13.4020 C.3   193  MET193      0.0692
    138  N         41.1310    6.1140   18.0460 N.3   217  TYR217     -0.1241
    139  CA        40.3490    6.9670   18.9280 C.3   217  TYR217      0.1605
    140  C         39.9100    6.0970   20.0910 C.2   217  TYR217      0.2264
    141  O         39.5950    4.9220   19.9110 O.2   217  TYR217     -0.2867
    142  CB        39.0840    7.4900   18.2450 C.3   217  TYR217      0.0534
    143  CG        39.2970    8.3710   17.0390 C.ar  217  TYR217     -0.0201
    144  CD1       40.3390    9.2990   16.9910 C.ar  217  TYR217     -0.0009
    145  CD2       38.4070    8.3230   15.9660 C.ar  217  TYR217     -0.0009
    146  CE1       40.4820   10.1620   15.9000 C.ar  217  TYR217      0.0417
    147  CE2       38.5430    9.1740   14.8770 C.ar  217  TYR217      0.0417
    148  CZ        39.5770   10.0900   14.8480 C.ar  217  TYR217      0.1957
    149  OH        39.7150   10.9290   13.7640 O.3   217  TYR217     -0.2866
@<TRIPOS>BOND
     1    93    94    1
     2    94    97    1
     3    94    95    1
     4    96    95    2
     5    97    98    1
     6    95   105   am
     7   112   110    1
     8    98   100   ar
     9    98    99   ar
    10   105   106    1
    11   120   118    1
    12   110   111    1
    13   110   109    1
    14   133   132    2
    15   100   102   ar
    16   106   109    1
    17   106   107    1
    18    99   101   ar
    19   132   131    1
    20   119   118    1
    21   118   117    1
    22   113   107   am
    23   113   114    1
    24   107   108    2
    25    89    88    2
    26   102   103   ar
    27   101   103   ar
    28   116   115    2
    29   117   114    1
    30   124   123    2
    31   131   130    1
    32   131   134    1
    33   103   104    1
    34   114   115    1
    35   115   121   am
    36    88    87    1
    37   123   122    1
    38    92    90    1
    39   134   135    1
    40   121   122    1
    41    87    90    1
    42    87    86    1
    43   122   125    1
    44    90    91    1
    45   135   136    1
    46    85    83    1
    47   125   126    1
    48    55    56    1
    49   136   137    1
    50     8     7   ar
    51    56    59    1
    52    56    57    1
    53   126   127    1
    54    84    83    1
    55    83    80    1
    56    61    60    1
    57    59    60    1
    58    57    58    2
    59    82    81    2
    60     7     6    1
    61     7     9   ar
    62     3     4    2
    63     3     2    1
    64   149   148    1
    65    80    81    1
    66    80    79    1
    67   127   128   ar
    68   127   129   ar
    69     6     5    1
    70    60    62    1
    71     2     5    1
    72     2     1    1
    73   148   147   ar
    74   148   146   ar
    75   147   145   ar
    76    79    75   am
    77   146   144   ar
    78   145   143   ar
    79    76    75    2
    80    75    74    1
    81    66    65    2
    82    63    64    1
    83    26    27    1
    84    26    23    1
    85    21    20    1
    86    27    28    1
    87   144   143   ar
    88   143   142    1
    89    78    77    1
    90    65    64    1
    91    65    69   am
    92    42    41    1
    93    20    19   ar
    94    20    18   ar
    95    19    17   ar
    96    74    77    1
    97    74    73    1
    98    64    67    1
    99    72    71    2
   100    28    22    1
   101    23    24    1
   102    23    22    1
   103    73    71   am
   104    71    70    1
   105    25    24    2
   106   138   139    1
   107    43    41    1
   108   142   139    1
   109    68    67    1
   110    70    69    1
   111    18    16   ar
   112    24    29   am
   113    17    15   ar
   114    41    38    1
   115   139   140    1
   116    16    15   ar
   117    38    37    1
   118    38    39    1
   119    15    14    1
   120    29    30    1
   121    37    31   am
   122   141   140    2
   123    31    30    1
   124    31    32    2
   125    30    33    1
   126    14    11    1
   127    39    40    2
   128    53    52    1
   129    10    11    1
   130    54    52    1
   131    11    12    1
   132    33    34    1
   133    52    51    2
   134    35    34    1
   135    34    36    1
   136    12    13    2
   137    51    50    1
   138    50    49    1
   139    49    48    1
   140    48    45    1
   141    44    45    1
   142    45    46    1
   143    46    47    2
