@<TRIPOS>MOLECULE
tmp/1m5fC00.pdb
 131 124 0 0 0
SMALL
GASTEIGER

@<TRIPOS>ATOM
      1  N         42.7700   15.9260   41.5750 N.3    10  GLU10      -0.1245
      2  CA        43.2260   16.7780   40.4860 C.3    10  GLU10       0.1567
      3  C         44.1910   15.9220   39.6780 C.2    10  GLU10       0.2260
      4  O         45.2740   15.5880   40.1570 O.2    10  GLU10      -0.2867
      5  CB        43.9660   17.9920   41.0610 C.3    10  GLU10       0.0388
      6  CG        44.2810   19.0980   40.0690 C.3    10  GLU10       0.1160
      7  CD        43.0770   19.9550   39.7540 C.2    10  GLU10       0.3649
      8  OE1       42.3080   19.6100   38.8320 O.co2  10  GLU10      -0.2457
      9  OE2       42.8890   20.9760   40.4460 O.co2  10  GLU10      -0.2457
     10  N         41.6810   24.3280   47.2250 N.3    58  TYR58      -0.1241
     11  CA        43.0870   24.4140   47.5930 C.3    58  TYR58       0.1605
     12  C         43.2210   25.2070   48.8900 C.2    58  TYR58       0.2264
     13  O         43.7440   24.6900   49.8790 O.2    58  TYR58      -0.2867
     14  CB        43.8850   25.0420   46.4520 C.3    58  TYR58       0.0534
     15  CG        44.1020   24.0460   45.3420 C.ar   58  TYR58      -0.0201
     16  CD1       45.1750   23.1630   45.3820 C.ar   58  TYR58      -0.0009
     17  CD2       43.1730   23.9070   44.3100 C.ar   58  TYR58      -0.0009
     18  CE1       45.3220   22.1550   44.4280 C.ar   58  TYR58       0.0417
     19  CE2       43.3050   22.9000   43.3470 C.ar   58  TYR58       0.0417
     20  CZ        44.3830   22.0280   43.4180 C.ar   58  TYR58       0.1957
     21  OH        44.5240   21.0130   42.4980 O.3    58  TYR58      -0.2866
     22  N         49.1530   19.4170   44.7180 N.3    86  PRO86      -0.2102
     23  CA        49.7380   20.5020   43.9260 C.3    86  PRO86       0.1504
     24  C         49.3520   21.8370   44.5760 C.2    86  PRO86       0.2576
     25  O         48.6370   22.6550   43.9850 O.2    86  PRO86      -0.2718
     26  CB        49.0980   20.3000   42.5560 C.3    86  PRO86       0.0282
     27  CG        47.7450   19.7320   42.9000 C.3    86  PRO86       0.0208
     28  CD        48.0900   18.7250   43.9670 C.3    86  PRO86       0.0893
     29  N         49.8310   22.0360   45.8020 N.am   87  LEU87      -0.1966
     30  CA        49.5410   23.2370   46.5860 C.3    87  LEU87       0.1728
     31  C         50.6500   24.2750   46.4500 C.2    87  LEU87       0.2616
     32  O         51.7990   24.0210   46.8090 O.2    87  LEU87      -0.2715
     33  CB        49.3660   22.8610   48.0630 C.3    87  LEU87       0.0311
     34  CG        48.9140   23.9550   49.0410 C.3    87  LEU87       0.0022
     35  CD1       47.5390   24.4690   48.6480 C.3    87  LEU87       0.0001
     36  CD2       48.8720   23.3820   50.4540 C.3    87  LEU87       0.0001
     37  N         50.2900   25.4540   45.9540 N.am   88  THR88      -0.1951
     38  CA        51.2550   26.5230   45.7300 C.3    88  THR88       0.1897
     39  C         51.7270   27.2800   46.9610 C.2    88  THR88       0.2313
     40  O         50.9290   27.7010   47.8010 O.2    88  THR88      -0.2863
     41  CB        50.7010   27.5370   44.7290 C.3    88  THR88       0.1794
     42  OG1       50.3200   26.8460   43.5370 O.3    88  THR88      -0.2208
     43  CG2       51.7570   28.5930   44.3890 C.3    88  THR88       0.0378
     44  N         49.6890   32.0870   52.5870 N.3    93  ARG93      -0.1245
     45  CA        49.6060   30.7400   53.1340 C.3    93  ARG93       0.1563
     46  C         50.7670   30.4300   54.0930 C.2    93  ARG93       0.2260
     47  O         50.5720   29.8060   55.1390 O.2    93  ARG93      -0.2867
     48  CB        49.5700   29.7160   51.9950 C.3    93  ARG93       0.0307
     49  CG        48.2340   29.6650   51.2470 C.3    93  ARG93       0.0489
     50  CD        48.3190   28.7700   50.0120 C.3    93  ARG93       0.2205
     51  NE        47.0450   28.6640   49.2990 N.pl3  93  ARG93      -0.0865
     52  CZ        46.9150   28.0990   48.1040 C.cat  93  ARG93       0.5346
     53  NH1       47.9820   27.5970   47.5000 N.pl3  93  ARG93       0.1354
     54  NH2       45.7280   28.0380   47.5120 N.pl3  93  ARG93       0.1354
     55  N         40.7730   29.8420   38.5210 N.3   135  LEU135     -0.1245
     56  CA        40.2270   28.9330   39.5180 C.3   135  LEU135      0.1561
     57  C         39.9730   29.6630   40.8290 C.2   135  LEU135      0.2260
     58  O         40.8100   30.4430   41.2950 O.2   135  LEU135     -0.2867
     59  CB        41.2000   27.7790   39.7620 C.3   135  LEU135      0.0270
     60  CG        40.8520   26.8320   40.9150 C.3   135  LEU135      0.0019
     61  CD1       39.5450   26.0970   40.6110 C.3   135  LEU135      0.0001
     62  CD2       41.9950   25.8530   41.1190 C.3   135  LEU135      0.0001
     63  N         42.1010   29.6120   44.7470 N.3   138  GLY138     -0.1210
     64  CA        43.4290   29.1560   44.3830 C.3   138  GLY138      0.1956
     65  C         44.4410   30.2900   44.3770 C.2   138  GLY138      0.2613
     66  O         44.0800   31.4590   44.5080 O.2   138  GLY138     -0.2717
     67  N         45.7120   29.9460   44.1990 N.am  139  SER139     -0.1938
     68  CA        46.7810   30.9370   44.1970 C.3   139  SER139      0.2055
     69  C         46.8120   31.8540   42.9780 C.2   139  SER139      0.2643
     70  O         47.2890   32.9850   43.0670 O.2   139  SER139     -0.2714
     71  CB        48.1340   30.2390   44.3440 C.3   139  SER139      0.2130
     72  OG        48.3240   29.2790   43.3240 O.3   139  SER139     -0.2179
     73  N         46.3120   31.3830   41.8390 N.am  140  THR140     -0.1950
     74  CA        46.3310   32.2160   40.6400 C.3   140  THR140      0.1897
     75  C         45.3920   33.4080   40.7860 C.2   140  THR140      0.2313
     76  O         45.7330   34.5330   40.4070 O.2   140  THR140     -0.2863
     77  CB        45.9560   31.4060   39.3850 C.3   140  THR140      0.1794
     78  OG1       46.9610   30.4130   39.1480 O.3   140  THR140     -0.2208
     79  CG2       45.8720   32.3120   38.1680 C.3   140  THR140      0.0378
     80  N         39.5220   23.0700   38.0800 N.3   171  THR171     -0.1218
     81  CA        40.2310   23.2480   36.8160 C.3   171  THR171      0.1862
     82  C         39.4860   22.4820   35.7310 C.2   171  THR171      0.2287
     83  O         39.4870   22.8840   34.5680 O.2   171  THR171     -0.2866
     84  CB        41.6770   22.7250   36.8800 C.3   171  THR171      0.1770
     85  OG1       41.6690   21.2920   36.8880 O.3   171  THR171     -0.2211
     86  CG2       42.3700   23.2310   38.1360 C.3   171  THR171      0.0375
     87  N         43.2150   30.8540   32.6980 N.3   188  LEU188     -0.1231
     88  CA        44.4920   31.1430   33.3360 C.3   188  LEU188      0.1693
     89  C         44.7080   30.0950   34.4280 C.2   188  LEU188      0.2592
     90  O         43.9690   30.0600   35.4110 O.2   188  LEU188     -0.2718
     91  CB        44.4620   32.5470   33.9490 C.3   188  LEU188      0.0284
     92  CG        44.5250   33.7200   32.9630 C.3   188  LEU188      0.0019
     93  CD1       43.7980   34.9410   33.5080 C.3   188  LEU188      0.0001
     94  CD2       45.9830   34.0370   32.7020 C.3   188  LEU188      0.0001
     95  N         45.7010   29.2300   34.2390 N.am  189  LEU189     -0.1966
     96  CA        45.9980   28.1880   35.2150 C.3   189  LEU189      0.1728
     97  C         47.4820   27.8880   35.2080 C.2   189  LEU189      0.2616
     98  O         48.2140   28.3220   34.3140 O.2   189  LEU189     -0.2715
     99  CB        45.2220   26.9030   34.9060 C.3   189  LEU189      0.0311
    100  CG        45.7430   25.9790   33.7990 C.3   189  LEU189      0.0022
    101  CD1       44.9070   24.7040   33.7720 C.3   189  LEU189      0.0001
    102  CD2       45.6850   26.6910   32.4520 C.3   189  LEU189      0.0001
    103  N         47.9250   27.1330   36.2030 N.am  190  GLU190     -0.1977
    104  CA        49.3290   26.7930   36.3050 C.3   190  GLU190      0.1602
    105  C         49.8160   25.9120   35.1610 C.2   190  GLU190      0.2287
    106  O         49.1130   25.0080   34.7030 O.2   190  GLU190     -0.2864
    107  CB        49.5980   26.1660   37.6770 C.3   190  GLU190      0.0415
    108  CG        49.4870   27.2250   38.7870 C.3   190  GLU190      0.1163
    109  CD        49.4830   26.6570   40.1970 C.2   190  GLU190      0.3649
    110  OE1       49.6860   27.4450   41.1490 O.co2 190  GLU190     -0.2457
    111  OE2       49.2660   25.4420   40.3560 O.co2 190  GLU190     -0.2457
    112  N         49.3570   22.0050   35.0100 N.3   193  MET193     -0.1245
    113  CA        48.0570   21.5080   34.5680 C.3   193  MET193      0.1570
    114  C         47.8430   21.7230   33.0720 C.2   193  MET193      0.2261
    115  O         47.3320   20.8430   32.3770 O.2   193  MET193     -0.2867
    116  CB        46.9280   22.1870   35.3510 C.3   193  MET193      0.0387
    117  CG        46.8240   21.7570   36.8140 C.3   193  MET193      0.0595
    118  SD        46.6610   19.9640   36.9970 S.3   193  MET193     -0.1393
    119  CE        45.0010   19.7130   36.3640 C.3   193  MET193      0.0692
    120  N         55.3360   24.2190   44.2230 N.3   217  TYR217     -0.1241
    121  CA        54.4190   23.4830   45.0790 C.3   217  TYR217      0.1605
    122  C         55.2290   22.9710   46.2570 C.2   217  TYR217      0.2264
    123  O         56.3740   22.5580   46.0920 O.2   217  TYR217     -0.2867
    124  CB        53.8280   22.2620   44.3550 C.3   217  TYR217      0.0534
    125  CG        52.9560   22.5580   43.1570 C.ar  217  TYR217     -0.0201
    126  CD1       52.1410   23.6890   43.1210 C.ar  217  TYR217     -0.0009
    127  CD2       52.8920   21.6650   42.0860 C.ar  217  TYR217     -0.0009
    128  CE1       51.2830   23.9230   42.0500 C.ar  217  TYR217      0.0417
    129  CE2       52.0340   21.8860   41.0170 C.ar  217  TYR217      0.0417
    130  CZ        51.2340   23.0150   41.0050 C.ar  217  TYR217      0.1957
    131  OH        50.3810   23.2360   39.9540 O.3   217  TYR217     -0.2866
@<TRIPOS>BOND
     1   115   114    2
     2   102   100    1
     3    87    88    1
     4    94    92    1
     5    92    93    1
     6    92    91    1
     7   114   113    1
     8    88    91    1
     9    88    89    1
    10   101   100    1
    11   100    99    1
    12    95    89   am
    13    95    96    1
    14    98    97    2
    15    89    90    2
    16   113   112    1
    17   113   116    1
    18    83    82    2
    19   106   105    2
    20    99    96    1
    21   105   104    1
    22    97    96    1
    23    97   103   am
    24   116   117    1
    25    82    81    1
    26   103   104    1
    27   104   107    1
    28   119   118    1
    29   117   118    1
    30    81    84    1
    31    81    80    1
    32    84    85    1
    33    84    86    1
    34   107   108    1
    35    79    77    1
    36    55    56    1
    37   108   109    1
    38     8     7   ar
    39    78    77    1
    40    77    74    1
    41    56    59    1
    42    56    57    1
    43     3     4    2
    44     3     2    1
    45     7     6    1
    46     7     9   ar
    47    59    60    1
    48   131   130    1
    49     6     5    1
    50   109   111   ar
    51   109   110   ar
    52    76    75    2
    53     2     5    1
    54     2     1    1
    55    61    60    1
    56    74    75    1
    57    74    73    1
    58    57    58    2
    59    60    62    1
    60   130   129   ar
    61   130   128   ar
    62   129   127   ar
    63    73    69   am
    64   128   126   ar
    65   127   125   ar
    66    21    20    1
    67    26    27    1
    68    26    23    1
    69    27    28    1
    70    69    70    2
    71    69    68    1
    72   126   125   ar
    73   125   124    1
    74    72    71    1
    75    19    20   ar
    76    19    17   ar
    77    20    18   ar
    78    42    41    1
    79    23    24    1
    80    23    22    1
    81    28    22    1
    82    25    24    2
    83    68    67    1
    84    68    71    1
    85    67    65   am
    86   120   121    1
    87    17    15   ar
    88   124   121    1
    89    65    64    1
    90    65    66    2
    91    64    63    1
    92    43    41    1
    93    18    16   ar
    94    24    29   am
    95    41    38    1
    96   121   122    1
    97    15    16   ar
    98    15    14    1
    99    38    37    1
   100    38    39    1
   101    29    30    1
   102    37    31   am
   103   123   122    2
   104    31    30    1
   105    31    32    2
   106    14    11    1
   107    30    33    1
   108    39    40    2
   109    10    11    1
   110    53    52    1
   111    54    52    1
   112    11    12    1
   113    33    34    1
   114    52    51    2
   115    35    34    1
   116    12    13    2
   117    34    36    1
   118    51    50    1
   119    50    49    1
   120    49    48    1
   121    48    45    1
   122    44    45    1
   123    45    46    1
   124    46    47    2
