@<TRIPOS>MOLECULE
tmp/1m5rF01.pdb
 109 101 0 0 0
SMALL
GASTEIGER

@<TRIPOS>ATOM
      1  N         44.0620    2.3610   28.1290 N.3    18  VAL18      -0.1231
      2  CA        42.8190    1.6090   28.1230 C.3    18  VAL18       0.1678
      3  C         42.5690    0.9300   26.7730 C.2    18  VAL18       0.2434
      4  O         42.2090   -0.2450   26.7270 O.2    18  VAL18      -0.2733
      5  CB        41.6310    2.5210   28.4730 C.3    18  VAL18       0.0265
      6  CG1       40.3290    1.7320   28.4150 C.3    18  VAL18       0.0020
      7  CG2       41.8330    3.1120   29.8660 C.3    18  VAL18       0.0020
      8  N         42.7670    1.6570   25.6560 N.am   19  PRO19      -0.2729
      9  CA        42.5470    1.0750   24.3230 C.3    19  PRO19       0.1401
     10  C         43.4440   -0.1190   24.0220 C.2    19  PRO19       0.2269
     11  O         42.9860   -1.1250   23.4800 O.2    19  PRO19      -0.2865
     12  CB        42.8150    2.2510   23.3860 C.3    19  PRO19       0.0296
     13  CG        42.3860    3.4280   24.2120 C.3    19  PRO19       0.0237
     14  CD        43.0340    3.1000   25.5410 C.3    19  PRO19       0.0939
     15  N         42.1680   -3.0860   26.2980 N.3    22  GLU22      -0.1245
     16  CA        40.9460   -3.7240   25.8280 C.3    22  GLU22       0.1567
     17  C         41.2250   -4.6220   24.6270 C.2    22  GLU22       0.2260
     18  O         40.6630   -5.7070   24.5260 O.2    22  GLU22      -0.2867
     19  CB        39.8730   -2.6700   25.4820 C.3    22  GLU22       0.0388
     20  CG        38.6150   -3.2390   24.8000 C.3    22  GLU22       0.1160
     21  CD        37.3220   -2.5010   25.1730 C.2    22  GLU22       0.3649
     22  OE1       36.7770   -2.7700   26.2690 O.co2  22  GLU22      -0.2457
     23  OE2       36.8470   -1.6550   24.3750 O.co2  22  GLU22      -0.2457
     24  N         36.3410   -0.3250   18.4820 N.3    66  ASN66      -0.1240
     25  CA        35.9820    1.0550   18.1950 C.3    66  ASN66       0.1653
     26  C         36.9690    2.1020   18.6920 C.2    66  ASN66       0.2266
     27  O         37.7120    1.8730   19.6410 O.2    66  ASN66      -0.2867
     28  CB        34.5600    1.3670   18.6990 C.3    66  ASN66       0.1155
     29  CG        34.3850    1.2100   20.2120 C.2    66  ASN66       0.2627
     30  OD1       33.2720    1.3680   20.7180 O.2    66  ASN66      -0.2716
     31  ND2       35.4630    0.9130   20.9340 N.am   66  ASN66      -0.0877
     32  N         31.8260   -0.7340   21.9100 N.3    99  THR99      -0.1203
     33  CA        31.8070   -0.7760   23.3680 C.3    99  THR99       0.1994
     34  C         31.6330    0.5960   24.0090 C.2    99  THR99       0.2617
     35  O         31.3690    0.6920   25.2030 O.2    99  THR99      -0.2717
     36  CB        33.1200   -1.3710   23.9160 C.3    99  THR99       0.1784
     37  OG1       34.2130   -0.5390   23.5140 O.3    99  THR99      -0.2211
     38  CG2       33.3430   -2.7830   23.3870 C.3    99  THR99       0.0376
     39  N         31.7900    1.6580   23.2260 N.am  100  ASP100     -0.1973
     40  CA        31.6680    3.0100   23.7620 C.3   100  ASP100      0.1709
     41  C         30.7590    3.8280   22.8500 C.2   100  ASP100      0.2293
     42  O         31.0420    3.9880   21.6610 O.2   100  ASP100     -0.2864
     43  CB        33.0640    3.6450   23.8610 C.3   100  ASP100      0.1436
     44  CG        33.0660    4.9870   24.5950 C.2   100  ASP100      0.3671
     45  OD1       34.0710    5.2790   25.2810 O.co2 100  ASP100     -0.2456
     46  OD2       32.0920    5.7570   24.4850 O.co2 100  ASP100     -0.2456
     47  N         32.0830    6.3280   20.3530 N.3   103  LEU103     -0.1245
     48  CA        32.9440    5.8850   19.2620 C.3   103  LEU103      0.1561
     49  C         32.3360    5.0570   18.1320 C.2   103  LEU103      0.2260
     50  O         32.8240    3.9590   17.8260 O.2   103  LEU103     -0.2867
     51  CB        34.1300    5.1230   19.8670 C.3   103  LEU103      0.0270
     52  CG        34.7380    5.7490   21.1310 C.3   103  LEU103      0.0019
     53  CD1       35.8100    4.8220   21.7060 C.3   103  LEU103      0.0001
     54  CD2       35.3240    7.1210   20.8100 C.3   103  LEU103      0.0001
     55  N         27.4930   -3.3530   22.4380 N.3   137  GLN137     -0.1245
     56  CA        27.5820   -3.7150   23.8450 C.3   137  GLN137      0.1566
     57  C         26.2560   -3.3380   24.4870 C.2   137  GLN137      0.2260
     58  O         25.8490   -3.9150   25.4990 O.2   137  GLN137     -0.2867
     59  CB        28.7230   -2.9520   24.5150 C.3   137  GLN137      0.0367
     60  CG        28.9570   -3.3370   25.9640 C.3   137  GLN137      0.0905
     61  CD        30.3200   -2.8950   26.4470 C.2   137  GLN137      0.2608
     62  OE1       31.3390   -3.2210   25.8370 O.2   137  GLN137     -0.2717
     63  NE2       30.3500   -2.1540   27.5460 N.am  137  GLN137     -0.0878
     64  N         35.4690   11.8880   30.0480 N.3   191  ARG191     -0.1245
     65  CA        34.4880   11.5840   29.0090 C.3   191  ARG191      0.1563
     66  C         33.8030   12.8280   28.4320 C.2   191  ARG191      0.2260
     67  O         32.5900   12.8490   28.2270 O.2   191  ARG191     -0.2867
     68  CB        33.4370   10.6050   29.5440 C.3   191  ARG191      0.0307
     69  CG        33.9810    9.1980   29.7920 C.3   191  ARG191      0.0489
     70  CD        32.8630    8.2060   30.1130 C.3   191  ARG191      0.2205
     71  NE        31.9430    8.0230   28.9900 N.pl3 191  ARG191     -0.0865
     72  CZ        32.2170    7.3380   27.8830 C.cat 191  ARG191      0.5346
     73  NH1       33.4000    6.7460   27.7280 N.pl3 191  ARG191      0.1354
     74  NH2       31.3080    7.2600   26.9140 N.pl3 191  ARG191      0.1354
     75  N         45.2000   -1.0150   33.1890 N.3   240  MET240     -0.1245
     76  CA        43.8680   -1.6020   33.2470 C.3   240  MET240      0.1570
     77  C         43.7840   -2.9200   34.0130 C.2   240  MET240      0.2261
     78  O         42.7670   -3.2040   34.6560 O.2   240  MET240     -0.2867
     79  CB        43.2890   -1.8230   31.8440 C.3   240  MET240      0.0387
     80  CG        41.9010   -2.4630   31.9170 C.3   240  MET240      0.0595
     81  SD        41.2080   -3.0700   30.3880 S.3   240  MET240     -0.1393
     82  CE        40.3280   -1.6180   29.8260 C.3   240  MET240      0.0692
     83  N         23.6670    4.9780   28.3180 N.3   261  TYR261     -0.1241
     84  CA        24.0810    3.7200   28.9330 C.3   261  TYR261      0.1605
     85  C         22.9920    3.2280   29.8820 C.2   261  TYR261      0.2264
     86  O         22.8810    2.0320   30.1450 O.2   261  TYR261     -0.2867
     87  CB        25.3860    3.8930   29.7180 C.3   261  TYR261      0.0534
     88  CG        26.6350    3.9530   28.8660 C.ar  261  TYR261     -0.0201
     89  CD1       26.5710    3.8210   27.4750 C.ar  261  TYR261     -0.0009
     90  CD2       27.8880    4.1470   29.4520 C.ar  261  TYR261     -0.0009
     91  CE1       27.7280    3.8820   26.6930 C.ar  261  TYR261      0.0417
     92  CE2       29.0470    4.2110   28.6780 C.ar  261  TYR261      0.0417
     93  CZ        28.9580    4.0780   27.3010 C.ar  261  TYR261      0.1957
     94  OH        30.1020    4.1480   26.5380 O.3   261  TYR261     -0.2866
     95  N         28.6750   -1.8690   31.5980 N.3   267  THR267     -0.1203
     96  CA        30.0630   -1.5270   31.3130 C.3   267  THR267      0.1994
     97  C         31.1110   -2.3440   32.0580 C.2   267  THR267      0.2617
     98  O         30.8050   -3.0410   33.0300 O.2   267  THR267     -0.2717
     99  CB        30.3020   -0.0520   31.6130 C.3   267  THR267      0.1784
    100  OG1       29.9340    0.2150   32.9730 O.3   267  THR267     -0.2211
    101  CG2       29.4660    0.8150   30.6700 C.3   267  THR267      0.0376
    102  N         32.3540   -2.2410   31.5930 N.am  268  LEU268     -0.1979
    103  CA        33.4690   -2.9620   32.1990 C.3   268  LEU268      0.1596
    104  C         33.5510   -2.7160   33.7000 C.2   268  LEU268      0.2287
    105  O         33.7660   -3.6510   34.4740 O.2   268  LEU268     -0.2864
    106  CB        34.7970   -2.5320   31.5630 C.3   268  LEU268      0.0297
    107  CG        35.7230   -3.5890   30.9560 C.3   268  LEU268      0.0022
    108  CD1       37.1070   -2.9690   30.7750 C.3   268  LEU268      0.0001
    109  CD2       35.8100   -4.8170   31.8480 C.3   268  LEU268      0.0001
@<TRIPOS>BOND
     1    50    49    2
     2    49    48    1
     3    25    24    1
     4    25    26    1
     5    25    28    1
     6    26    27    2
     7    28    29    1
     8    48    51    1
     9    48    47    1
    10    51    52    1
    11    29    30    2
    12    29    31   am
    13    54    52    1
    14    52    53    1
    15    42    41    2
    16    32    33    1
    17    55    56    1
    18    41    40    1
    19    39    40    1
    20    39    34   am
    21    33    36    1
    22    33    34    1
    23    12    13    1
    24    12     9    1
    25    38    36    1
    26    11    10    2
    27    37    36    1
    28    40    43    1
    29    56    57    1
    30    56    59    1
    31    43    44    1
    32    34    35    2
    33    10     9    1
    34    13    14    1
    35     9     8    1
    36    23    21   ar
    37    46    44   ar
    38    57    58    2
    39    59    60    1
    40    18    17    2
    41    44    45   ar
    42    17    16    1
    43    20    21    1
    44    20    19    1
    45    21    22   ar
    46    19    16    1
    47    14     8    1
    48     8     3   am
    49    16    15    1
    50    62    61    2
    51    60    61    1
    52    61    63   am
    53    94    93    1
    54    91    93   ar
    55    91    89   ar
    56     4     3    2
    57     3     2    1
    58    74    72    1
    59    93    92   ar
    60    89    88   ar
    61    73    72    1
    62    72    71    2
    63     2     1    1
    64     2     5    1
    65    67    66    2
    66    83    84    1
    67     6     5    1
    68    66    65    1
    69     5     7    1
    70    92    90   ar
    71    88    90   ar
    72    88    87    1
    73    84    87    1
    74    84    85    1
    75    71    70    1
    76    65    68    1
    77    65    64    1
    78    68    69    1
    79    69    70    1
    80    82    81    1
    81    85    86    2
    82    81    80    1
    83   101    99    1
    84   108   107    1
    85   107   106    1
    86   107   109    1
    87    96    95    1
    88    96    99    1
    89    96    97    1
    90   106   103    1
    91   102    97   am
    92   102   103    1
    93    99   100    1
    94    79    80    1
    95    79    76    1
    96    97    98    2
    97   103   104    1
    98    75    76    1
    99    76    77    1
   100   104   105    2
   101    77    78    2
