@<TRIPOS>MOLECULE
tmp/1m5rF00.pdb
 172 162 0 0 0
SMALL
GASTEIGER

@<TRIPOS>ATOM
      1  N         47.6070    1.8700   28.4970 N.3    17  THR17      -0.1203
      2  CA        46.4670    2.6450   28.0170 C.3    17  THR17       0.1994
      3  C         45.2330    1.7540   27.9880 C.2    17  THR17       0.2617
      4  O         45.3420    0.5380   27.8470 O.2    17  THR17      -0.2717
      5  CB        46.7070    3.2260   26.5950 C.3    17  THR17       0.1784
      6  OG1       46.4900    2.2100   25.6060 O.3    17  THR17      -0.2211
      7  CG2       48.1320    3.7490   26.4700 C.3    17  THR17       0.0376
      8  N         44.0620    2.3610   28.1290 N.am   18  VAL18      -0.1979
      9  CA        42.8190    1.6090   28.1230 C.3    18  VAL18       0.1595
     10  C         42.5690    0.9300   26.7730 C.2    18  VAL18       0.2287
     11  O         42.2090   -0.2450   26.7270 O.2    18  VAL18      -0.2864
     12  CB        41.6310    2.5210   28.4730 C.3    18  VAL18       0.0276
     13  CG1       40.3290    1.7320   28.4150 C.3    18  VAL18       0.0022
     14  CG2       41.8330    3.1120   29.8660 C.3    18  VAL18       0.0022
     15  N         31.7900    1.6580   23.2260 N.3   100  ASP100     -0.1239
     16  CA        31.6680    3.0100   23.7620 C.3   100  ASP100      0.1674
     17  C         30.7590    3.8280   22.8500 C.2   100  ASP100      0.2266
     18  O         31.0420    3.9880   21.6610 O.2   100  ASP100     -0.2867
     19  CB        33.0640    3.6450   23.8610 C.3   100  ASP100      0.1410
     20  CG        33.0660    4.9870   24.5950 C.2   100  ASP100      0.3668
     21  OD1       34.0710    5.2790   25.2810 O.co2 100  ASP100     -0.2456
     22  OD2       32.0920    5.7570   24.4850 O.co2 100  ASP100     -0.2456
     23  N         36.3450    5.8230   42.3130 N.3   186  TYR186     -0.1227
     24  CA        35.8470    5.7610   40.9380 C.3   186  TYR186      0.1736
     25  C         37.0320    6.0130   40.0210 C.2   186  TYR186      0.2596
     26  O         37.8150    6.9360   40.2500 O.2   186  TYR186     -0.2718
     27  CB        34.7730    6.8300   40.7010 C.3   186  TYR186      0.0548
     28  CG        34.2930    6.9430   39.2650 C.ar  186  TYR186     -0.0200
     29  CD1       34.9360    7.7890   38.3570 C.ar  186  TYR186     -0.0009
     30  CD2       33.1920    6.2070   38.8140 C.ar  186  TYR186     -0.0009
     31  CE1       34.4950    7.9040   37.0370 C.ar  186  TYR186      0.0417
     32  CE2       32.7400    6.3140   37.4870 C.ar  186  TYR186      0.0417
     33  CZ        33.3980    7.1660   36.6080 C.ar  186  TYR186      0.1957
     34  OH        32.9570    7.2900   35.3030 O.3   186  TYR186     -0.2866
     35  N         37.1790    5.1770   39.0010 N.am  187  GLY187     -0.1942
     36  CA        38.2780    5.3510   38.0710 C.3   187  GLY187      0.2014
     37  C         37.7590    5.5520   36.6610 C.2   187  GLY187      0.2639
     38  O         36.8890    4.8080   36.2050 O.2   187  GLY187     -0.2714
     39  N         38.2810    6.5620   35.9720 N.am  188  GLY188     -0.1939
     40  CA        37.8490    6.8160   34.6100 C.3   188  GLY188      0.2014
     41  C         38.3620    8.1430   34.0950 C.2   188  GLY188      0.2639
     42  O         39.1310    8.8310   34.7710 O.2   188  GLY188     -0.2714
     43  N         37.9560    8.4980   32.8840 N.am  189  SER189     -0.1949
     44  CA        38.3660    9.7690   32.3090 C.3   189  SER189      0.1924
     45  C         37.2020   10.7370   32.4750 C.2   189  SER189      0.2314
     46  O         36.1700   10.3870   33.0480 O.2   189  SER189     -0.2863
     47  CB        38.6960    9.6120   30.8240 C.3   189  SER189      0.2116
     48  OG        37.5140    9.5060   30.0500 O.3   189  SER189     -0.2180
     49  N         35.4690   11.8880   30.0480 N.3   191  ARG191     -0.1245
     50  CA        34.4880   11.5840   29.0090 C.3   191  ARG191      0.1563
     51  C         33.8030   12.8280   28.4320 C.2   191  ARG191      0.2260
     52  O         32.5900   12.8490   28.2270 O.2   191  ARG191     -0.2867
     53  CB        33.4370   10.6050   29.5440 C.3   191  ARG191      0.0307
     54  CG        33.9810    9.1980   29.7920 C.3   191  ARG191      0.0489
     55  CD        32.8630    8.2060   30.1130 C.3   191  ARG191      0.2205
     56  NE        31.9430    8.0230   28.9900 N.pl3 191  ARG191     -0.0865
     57  CZ        32.2170    7.3380   27.8830 C.cat 191  ARG191      0.5346
     58  NH1       33.4000    6.7460   27.7280 N.pl3 191  ARG191      0.1354
     59  NH2       31.3080    7.2600   26.9140 N.pl3 191  ARG191      0.1354
     60  N         29.2060   13.0620   31.9160 N.3   195  ARG195     -0.1245
     61  CA        28.6970   12.6560   33.2280 C.3   195  ARG195      0.1563
     62  C         29.0790   13.6540   34.2950 C.2   195  ARG195      0.2260
     63  O         29.1490   13.2920   35.4670 O.2   195  ARG195     -0.2867
     64  CB        29.2970   11.3250   33.6780 C.3   195  ARG195      0.0307
     65  CG        28.9550   10.1690   32.8440 C.3   195  ARG195      0.0489
     66  CD        29.7100    8.9420   33.3190 C.3   195  ARG195      0.2205
     67  NE        29.7090    7.9950   32.2280 N.pl3 195  ARG195     -0.0865
     68  CZ        30.3300    6.8280   32.2250 C.cat 195  ARG195      0.5346
     69  NH1       31.0310    6.4250   33.2830 N.pl3 195  ARG195      0.1354
     70  NH2       30.2430    6.0730   31.1420 N.pl3 195  ARG195      0.1354
     71  N         40.4540    8.1580   40.3860 N.3   213  PHE213     -0.1227
     72  CA        41.6690    7.8300   39.6520 C.3   213  PHE213      0.1736
     73  C         41.3690    7.7460   38.1650 C.2   213  PHE213      0.2596
     74  O         40.2140    7.6790   37.7590 O.2   213  PHE213     -0.2718
     75  CB        42.3290    6.5300   40.1630 C.3   213  PHE213      0.0547
     76  CG        41.5440    5.2620   39.8940 C.ar  213  PHE213     -0.0202
     77  CD1       40.4890    4.8820   40.7240 C.ar  213  PHE213     -0.0042
     78  CD2       41.9240    4.4040   38.8580 C.ar  213  PHE213     -0.0042
     79  CE1       39.8250    3.6550   40.5330 C.ar  213  PHE213     -0.0003
     80  CE2       41.2710    3.1820   38.6580 C.ar  213  PHE213     -0.0003
     81  CZ        40.2210    2.8050   39.4980 C.ar  213  PHE213     -0.0000
     82  N         42.4130    7.7680   37.3500 N.am  214  GLY214     -0.1957
     83  CA        42.2090    7.7350   35.9150 C.3   214  GLY214      0.1869
     84  C         42.7610    9.0190   35.3260 C.2   214  GLY214      0.2309
     85  O         43.5250    9.7260   35.9850 O.2   214  GLY214     -0.2863
     86  N         46.5360    7.8060   36.3440 N.3   237  LYS237     -0.1231
     87  CA        45.9220    6.6460   35.7200 C.3   237  LYS237      0.1693
     88  C         46.7690    5.4280   36.0710 C.2   237  LYS237      0.2591
     89  O         47.9720    5.5490   36.3090 O.2   237  LYS237     -0.2718
     90  CB        45.8490    6.8220   34.1980 C.3   237  LYS237      0.0285
     91  CG        47.1900    6.8560   33.4900 C.3   237  LYS237      0.0035
     92  CD        47.0000    6.8770   31.9730 C.3   237  LYS237      0.0206
     93  CE        48.3330    6.7820   31.2420 C.3   237  LYS237      0.1093
     94  NZ        48.1640    6.6880   29.7610 N.3   237  LYS237     -0.1314
     95  N         46.1790    4.2350   36.1170 N.am  238  ILE238     -0.1980
     96  CA        46.8630    2.9990   36.4700 C.3   238  ILE238      0.1595
     97  C         46.5650    1.9840   35.3690 C.2   238  ILE238      0.2287
     98  O         45.5700    2.1090   34.6580 O.2   238  ILE238     -0.2864
     99  CB        46.3730    2.4400   37.8110 C.3   238  ILE238      0.0276
    100  CG1       44.8940    2.0840   37.7090 C.3   238  ILE238      0.0022
    101  CG2       46.6030    3.4670   38.9220 C.3   238  ILE238      0.0022
    102  CD1       44.4170    1.1810   38.8060 C.3   238  ILE238      0.0001
    103  N         45.2000   -1.0150   33.1890 N.3   240  MET240     -0.1245
    104  CA        43.8680   -1.6020   33.2470 C.3   240  MET240      0.1570
    105  C         43.7840   -2.9200   34.0130 C.2   240  MET240      0.2261
    106  O         42.7670   -3.2040   34.6560 O.2   240  MET240     -0.2867
    107  CB        43.2890   -1.8230   31.8440 C.3   240  MET240      0.0387
    108  CG        41.9010   -2.4630   31.9170 C.3   240  MET240      0.0595
    109  SD        41.2080   -3.0700   30.3880 S.3   240  MET240     -0.1393
    110  CE        40.3280   -1.6180   29.8260 C.3   240  MET240      0.0692
    111  N         42.9150   -2.4070   37.7980 N.3   243  VAL243     -0.1245
    112  CA        41.7350   -1.6530   38.1990 C.3   243  VAL243      0.1561
    113  C         40.9450   -2.2440   39.3710 C.2   243  VAL243      0.2260
    114  O         40.5960   -1.5190   40.3040 O.2   243  VAL243     -0.2867
    115  CB        40.8020   -1.4280   36.9860 C.3   243  VAL243      0.0252
    116  CG1       39.4910   -0.7850   37.4310 C.3   243  VAL243      0.0019
    117  CG2       41.5020   -0.5240   35.9800 C.3   243  VAL243      0.0019
    118  N         28.3140    4.6440   37.5010 N.3   256  ILE256     -0.1245
    119  CA        27.5070    5.6440   36.8060 C.3   256  ILE256      0.1561
    120  C         27.7980    5.4610   35.3200 C.2   256  ILE256      0.2260
    121  O         28.7650    4.7910   34.9590 O.2   256  ILE256     -0.2867
    122  CB        27.8560    7.1020   37.2090 C.3   256  ILE256      0.0252
    123  CG1       29.3720    7.3200   37.1720 C.3   256  ILE256      0.0019
    124  CG2       27.2660    7.4130   38.5720 C.3   256  ILE256      0.0019
    125  CD1       29.7940    8.7710   37.4150 C.3   256  ILE256      0.0001
    126  N         23.6670    4.9780   28.3180 N.3   261  TYR261     -0.1241
    127  CA        24.0810    3.7200   28.9330 C.3   261  TYR261      0.1605
    128  C         22.9920    3.2280   29.8820 C.2   261  TYR261      0.2264
    129  O         22.8810    2.0320   30.1450 O.2   261  TYR261     -0.2867
    130  CB        25.3860    3.8930   29.7180 C.3   261  TYR261      0.0534
    131  CG        26.6350    3.9530   28.8660 C.ar  261  TYR261     -0.0201
    132  CD1       26.5710    3.8210   27.4750 C.ar  261  TYR261     -0.0009
    133  CD2       27.8880    4.1470   29.4520 C.ar  261  TYR261     -0.0009
    134  CE1       27.7280    3.8820   26.6930 C.ar  261  TYR261      0.0417
    135  CE2       29.0470    4.2110   28.6780 C.ar  261  TYR261      0.0417
    136  CZ        28.9580    4.0780   27.3010 C.ar  261  TYR261      0.1957
    137  OH        30.1020    4.1480   26.5380 O.3   261  TYR261     -0.2866
    138  N         28.6750   -1.8690   31.5980 N.3   267  THR267     -0.1203
    139  CA        30.0630   -1.5270   31.3130 C.3   267  THR267      0.1994
    140  C         31.1110   -2.3440   32.0580 C.2   267  THR267      0.2618
    141  O         30.8050   -3.0410   33.0300 O.2   267  THR267     -0.2717
    142  CB        30.3020   -0.0520   31.6130 C.3   267  THR267      0.1784
    143  OG1       29.9340    0.2150   32.9730 O.3   267  THR267     -0.2211
    144  CG2       29.4660    0.8150   30.6700 C.3   267  THR267      0.0376
    145  N         32.3540   -2.2410   31.5930 N.am  268  LEU268     -0.1965
    146  CA        33.4690   -2.9620   32.1990 C.3   268  LEU268      0.1728
    147  C         33.5510   -2.7160   33.7000 C.2   268  LEU268      0.2616
    148  O         33.7660   -3.6510   34.4740 O.2   268  LEU268     -0.2715
    149  CB        34.7970   -2.5320   31.5630 C.3   268  LEU268      0.0311
    150  CG        35.7230   -3.5890   30.9560 C.3   268  LEU268      0.0022
    151  CD1       37.1070   -2.9690   30.7750 C.3   268  LEU268      0.0001
    152  CD2       35.8100   -4.8170   31.8480 C.3   268  LEU268      0.0001
    153  N         33.3750   -1.4600   34.1150 N.am  269  ARG269     -0.1977
    154  CA        33.4730   -1.1290   35.5330 C.3   269  ARG269      0.1597
    155  C         32.4870   -1.9000   36.3960 C.2   269  ARG269      0.2287
    156  O         32.7480   -2.1180   37.5790 O.2   269  ARG269     -0.2864
    157  CB        33.3120    0.3830   35.7780 C.3   269  ARG269      0.0334
    158  CG        31.8950    0.9180   35.6690 C.3   269  ARG269      0.0492
    159  CD        31.8170    2.3830   36.1280 C.3   269  ARG269      0.2205
    160  NE        32.6550    3.2640   35.3120 N.pl3 269  ARG269     -0.0865
    161  CZ        33.8670    3.6940   35.6570 C.cat 269  ARG269      0.5346
    162  NH1       34.4090    3.3350   36.8160 N.pl3 269  ARG269      0.1354
    163  NH2       34.5430    4.4890   34.8360 N.pl3 269  ARG269      0.1354
    164  N         34.4720   -4.9230   37.0310 N.3   272  GLU272     -0.1245
    165  CA        35.6860   -4.5930   37.7720 C.3   272  GLU272      0.1567
    166  C         35.3650   -4.2590   39.2260 C.2   272  GLU272      0.2260
    167  O         36.1510   -4.5410   40.1340 O.2   272  GLU272     -0.2867
    168  CB        36.4020   -3.4020   37.1340 C.3   272  GLU272      0.0388
    169  CG        36.9370   -3.6630   35.7290 C.3   272  GLU272      0.1160
    170  CD        37.4010   -2.3880   35.0440 C.2   272  GLU272      0.3649
    171  OE1       36.8400   -1.3150   35.3490 O.co2 272  GLU272     -0.2457
    172  OE2       38.3120   -2.4550   34.1910 O.co2 272  GLU272     -0.2457
@<TRIPOS>BOND
     1    18    17    2
     2    17    16    1
     3    15    16    1
     4    16    19    1
     5    19    20    1
     6    22    20   ar
     7    20    21   ar
     8     6     5    1
     9     7     5    1
    10   137   136    1
    11     5     2    1
    12   134   136   ar
    13   134   132   ar
    14    11    10    2
    15    10     9    1
    16    59    57    1
    17   136   135   ar
    18   132   131   ar
    19    58    57    1
    20     4     3    2
    21    57    56    2
    22     3     2    1
    23     3     8   am
    24     2     1    1
    25     9     8    1
    26     9    12    1
    27    52    51    2
    28   126   127    1
    29    13    12    1
    30    51    50    1
    31    12    14    1
    32   135   133   ar
    33   131   133   ar
    34   131   130    1
    35   127   130    1
    36   127   128    1
    37    56    55    1
    38    50    53    1
    39    50    49    1
    40    53    54    1
    41    94    93    1
    42    54    55    1
    43   110   109    1
    44   128   129    2
    45    48    47    1
    46   109   108    1
    47   144   142    1
    48   151   150    1
    49    47    44    1
    50   150   149    1
    51   150   152    1
    52    70    68    1
    53    93    92    1
    54   139   138    1
    55   139   142    1
    56   139   140    1
    57   149   146    1
    58   145   140   am
    59   145   146    1
    60   142   143    1
    61   107   108    1
    62   107   104    1
    63    60    61    1
    64    92    91    1
    65   140   141    2
    66   146   147    1
    67    68    67    2
    68    68    69    1
    69    67    66    1
    70    44    45    1
    71    44    43    1
    72    45    46    2
    73    65    66    1
    74    65    64    1
    75    43    41   am
    76   103   104    1
    77    61    64    1
    78    61    62    1
    79   104   105    1
    80    91    90    1
    81   147   153   am
    82   147   148    2
    83   105   106    2
    84    41    40    1
    85    41    42    2
    86   153   154    1
    87   172   170   ar
    88    90    87    1
    89    62    63    2
    90    40    39    1
    91    98    97    2
    92   163   161    1
    93   121   120    2
    94   170   171   ar
    95   170   169    1
    96    34    33    1
    97   160   161    2
    98   160   159    1
    99   120   119    1
   100    84    83    1
   101    84    85    2
   102    97    96    1
   103   154   157    1
   104   154   155    1
   105   161   162    1
   106   158   157    1
   107   158   159    1
   108    87    88    1
   109    87    86    1
   110   169   168    1
   111    83    82    1
   112    39    37   am
   113   117   115    1
   114    88    95   am
   115    88    89    2
   116    95    96    1
   117    38    37    2
   118   155   156    2
   119    96    99    1
   120    33    31   ar
   121    33    32   ar
   122    37    36    1
   123   119   122    1
   124   119   118    1
   125   115   116    1
   126   115   112    1
   127   164   165    1
   128    31    29   ar
   129   168   165    1
   130   123   122    1
   131   123   125    1
   132   122   124    1
   133    82    73   am
   134    32    30   ar
   135   100    99    1
   136   100   102    1
   137    74    73    2
   138   165   166    1
   139   111   112    1
   140    99   101    1
   141    36    35    1
   142    73    72    1
   143   112   113    1
   144    29    28   ar
   145    80    78   ar
   146    80    81   ar
   147    30    28   ar
   148    78    76   ar
   149    35    25   am
   150   166   167    2
   151    28    27    1
   152   113   114    2
   153    81    79   ar
   154    72    75    1
   155    72    71    1
   156    76    75    1
   157    76    77   ar
   158    25    26    2
   159    25    24    1
   160    79    77   ar
   161    27    24    1
   162    24    23    1
