@<TRIPOS>MOLECULE
tmp/1m63A00.pdb
 145 148 0 0 0
SMALL
GASTEIGER

@<TRIPOS>ATOM
      1  N         95.5840   16.9850   33.1110 N.3   122  ARG122     -0.1245
      2  CA        94.7790   16.8000   31.8960 C.3   122  ARG122      0.1563
      3  C         94.2030   15.3990   31.7530 C.2   122  ARG122      0.2260
      4  O         92.9930   15.2470   31.5830 O.2   122  ARG122     -0.2867
      5  CB        95.5270   17.2800   30.6350 C.3   122  ARG122      0.0307
      6  CG        95.8630   18.7570   30.7420 C.3   122  ARG122      0.0489
      7  CD        96.3910   19.3770   29.4940 C.3   122  ARG122      0.2205
      8  NE        96.2940   20.8340   29.6050 N.pl3 122  ARG122     -0.0865
      9  CZ        97.3230   21.6780   29.5890 C.cat 122  ARG122      0.5346
     10  NH1       97.0990   22.9760   29.7200 N.pl3 122  ARG122      0.1354
     11  NH2       98.5660   21.2500   29.3820 N.pl3 122  ARG122      0.1354
     12  N         93.2360   11.7870   33.3410 N.3   124  TYR124     -0.1241
     13  CA        92.7670   11.3490   34.6440 C.3   124  TYR124      0.1605
     14  C         93.4340   10.1250   35.3180 C.2   124  TYR124      0.2264
     15  O         92.9340    9.6280   36.3280 O.2   124  TYR124     -0.2867
     16  CB        91.2300   11.2770   34.6220 C.3   124  TYR124      0.0534
     17  CG        90.5200   12.6450   34.5990 C.ar  124  TYR124     -0.0201
     18  CD1       89.3100   12.8460   35.2990 C.ar  124  TYR124     -0.0009
     19  CD2       91.0560   13.7510   33.8890 C.ar  124  TYR124     -0.0009
     20  CE1       88.6500   14.1200   35.2970 C.ar  124  TYR124      0.0417
     21  CE2       90.4120   15.0330   33.8790 C.ar  124  TYR124      0.0417
     22  CZ        89.2140   15.2070   34.5810 C.ar  124  TYR124      0.1957
     23  OH        88.5960   16.4440   34.5580 O.3   124  TYR124     -0.2866
     24  N         93.4830   15.1190   25.3580 N.3   312  LEU312     -0.1231
     25  CA        92.2440   15.5860   25.9870 C.3   312  LEU312      0.1693
     26  C         91.0030   14.8830   25.3890 C.2   312  LEU312      0.2592
     27  O         89.9360   15.4840   25.2530 O.2   312  LEU312     -0.2718
     28  CB        92.1440   17.1250   25.9250 C.3   312  LEU312      0.0284
     29  CG        93.1950   17.9900   26.6370 C.3   312  LEU312      0.0019
     30  CD1       93.4050   19.2850   25.9060 C.3   312  LEU312      0.0001
     31  CD2       92.7470   18.2850   28.0340 C.3   312  LEU312      0.0001
     32  N         91.1900   13.6180   24.9840 N.am  313  ASP313     -0.1960
     33  CA        90.1510   12.7420   24.4060 C.3   313  ASP313      0.1840
     34  C         89.4590   13.2820   23.1610 C.2   313  ASP313      0.2622
     35  O         88.4990   12.6820   22.6530 O.2   313  ASP313     -0.2715
     36  CB        89.0630   12.4440   25.4460 C.3   313  ASP313      0.1450
     37  CG        89.4770   11.4140   26.4540 C.2   313  ASP313      0.3671
     38  OD1       88.8180   11.3790   27.5190 O.co2 313  ASP313     -0.2456
     39  OD2       90.4230   10.6360   26.1810 O.co2 313  ASP313     -0.2456
     40  N         90.0420   14.3220   22.5790 N.am  314  VAL314     -0.1963
     41  CA        89.3780   14.9760   21.4880 C.3   314  VAL314      0.1727
     42  C         90.1940   15.5720   20.3210 C.2   314  VAL314      0.2616
     43  O         89.6380   15.8120   19.2490 O.2   314  VAL314     -0.2715
     44  CB        88.4540   15.9770   22.1700 C.3   314  VAL314      0.0290
     45  CG1       89.1170   17.3300   22.3880 C.3   314  VAL314      0.0023
     46  CG2       87.1040   15.9170   21.5780 C.3   314  VAL314      0.0023
     47  N         91.5000   15.7540   20.5160 N.am  315  TYR315     -0.1974
     48  CA        92.3990   16.3200   19.5010 C.3   315  TYR315      0.1639
     49  C         92.6160   15.4300   18.2780 C.2   315  TYR315      0.2290
     50  O         92.9170   15.9420   17.1900 O.2   315  TYR315     -0.2864
     51  CB        93.7730   16.6740   20.1120 C.3   315  TYR315      0.0560
     52  CG        93.9150   18.0770   20.6930 C.ar  315  TYR315     -0.0198
     53  CD1       92.9060   18.6410   21.5040 C.ar  315  TYR315     -0.0009
     54  CD2       95.0560   18.8570   20.4230 C.ar  315  TYR315     -0.0009
     55  CE1       93.0190   19.9530   22.0310 C.ar  315  TYR315      0.0417
     56  CE2       95.1830   20.1810   20.9490 C.ar  315  TYR315      0.0417
     57  CZ        94.1480   20.7140   21.7490 C.ar  315  TYR315      0.1957
     58  OH        94.2040   22.0010   22.2320 O.3   315  TYR315     -0.2866
     59  N         86.5700    5.6140   31.5960 N.3   341  TYR341     -0.1227
     60  CA        85.9840    6.9340   31.7040 C.3   341  TYR341      0.1736
     61  C         86.0090    7.3620   33.1580 C.2   341  TYR341      0.2595
     62  O         86.0770    6.5280   34.0630 O.2   341  TYR341     -0.2718
     63  CB        84.5380    6.9110   31.2080 C.3   341  TYR341      0.0548
     64  CG        84.0270    8.2240   30.6680 C.ar  341  TYR341     -0.0200
     65  CD1       83.1810    9.0480   31.4400 C.ar  341  TYR341     -0.0009
     66  CD2       84.3600    8.6420   29.3640 C.ar  341  TYR341     -0.0009
     67  CE1       82.6700   10.2790   30.9190 C.ar  341  TYR341      0.0417
     68  CE2       83.8530    9.8620   28.8270 C.ar  341  TYR341      0.0417
     69  CZ        83.0090   10.6700   29.6130 C.ar  341  TYR341      0.1957
     70  OH        82.4960   11.8300   29.0860 O.3   341  TYR341     -0.2866
     71  N         86.0070    8.6770   33.3460 N.am  342  TRP342     -0.1962
     72  CA        85.9710    9.3270   34.6500 C.3   342  TRP342      0.1771
     73  C         85.1690   10.5880   34.3870 C.2   342  TRP342      0.2619
     74  O         85.2580   11.1610   33.3000 O.2   342  TRP342     -0.2715
     75  CB        87.3760    9.7490   35.1190 C.3   342  TRP342      0.0590
     76  CG        88.0980    8.8410   36.0930 C.ar  342  TRP342      0.0006
     77  CD1       89.2250    8.1170   35.8400 C.ar  342  TRP342      0.0946
     78  CD2       87.7820    8.6210   37.4720 C.ar  342  TRP342      0.0152
     79  NE1       89.6460    7.4560   36.9750 N.ar  342  TRP342     -0.2442
     80  CE2       88.7800    7.7460   37.9940 C.ar  342  TRP342      0.0810
     81  CE3       86.7600    9.0740   38.3280 C.ar  342  TRP342      0.0012
     82  CZ2       88.7820    7.3150   39.3400 C.ar  342  TRP342      0.0191
     83  CZ3       86.7580    8.6430   39.6730 C.ar  342  TRP342      0.0001
     84  CH2       87.7690    7.7730   40.1620 C.ar  342  TRP342      0.0015
     85  N         84.3610   10.9980   35.3570 N.am  343  LEU343     -0.1964
     86  CA        83.5810   12.2340   35.2380 C.3   343  LEU343      0.1713
     87  C         84.5190   13.4090   35.5200 C.2   343  LEU343      0.2458
     88  O         85.5050   13.2340   36.2410 O.2   343  LEU343     -0.2730
     89  CB        82.4200   12.2240   36.2330 C.3   343  LEU343      0.0310
     90  CG        81.2520   11.3370   35.8190 C.3   343  LEU343      0.0022
     91  CD1       80.2910   11.1640   36.9620 C.3   343  LEU343      0.0001
     92  CD2       80.5630   11.9120   34.6020 C.3   343  LEU343      0.0001
     93  N         84.2560   14.6120   34.9500 N.am  344  PRO344     -0.2727
     94  CA        85.1440   15.7600   35.2000 C.3   344  PRO344      0.1402
     95  C         85.4220   16.0550   36.6750 C.2   344  PRO344      0.2269
     96  O         84.5460   15.8910   37.5350 O.2   344  PRO344     -0.2865
     97  CB        84.4470   16.9080   34.4700 C.3   344  PRO344      0.0296
     98  CG        83.0100   16.4740   34.4100 C.3   344  PRO344      0.0237
     99  CD        83.1490   15.0270   34.0710 C.3   344  PRO344      0.0939
    100  N         84.4530   13.5290   39.9070 N.3   347  MET347     -0.1245
    101  CA        83.2240   13.5060   40.6850 C.3   347  MET347      0.1570
    102  C         82.4070   12.2500   40.5070 C.2   347  MET347      0.2261
    103  O         82.5230   11.5550   39.4950 O.2   347  MET347     -0.2867
    104  CB        82.3680   14.7710   40.4670 C.3   347  MET347      0.0387
    105  CG        81.6770   14.9210   39.1130 C.3   347  MET347      0.0595
    106  SD        80.5990   16.3440   39.1400 S.3   347  MET347     -0.1393
    107  CE        81.3510   17.3870   37.8690 C.3   347  MET347      0.0692
    108  N         76.9750   14.7530   40.1430 N.3   352  TRP352     -0.1227
    109  CA        76.8460   15.0440   38.7220 C.3   352  TRP352      0.1737
    110  C         75.3920   14.9790   38.2770 C.2   352  TRP352      0.2596
    111  O         74.9670   15.8020   37.4640 O.2   352  TRP352     -0.2718
    112  CB        77.7030   14.0490   37.9320 C.3   352  TRP352      0.0564
    113  CG        77.5100   13.9670   36.4240 C.ar  352  TRP352      0.0003
    114  CD1       77.9250   14.8730   35.4920 C.ar  352  TRP352      0.0946
    115  CD2       77.0120   12.8450   35.6910 C.ar  352  TRP352      0.0152
    116  NE1       77.7480   14.3740   34.2290 N.ar  352  TRP352     -0.2442
    117  CE2       77.1850   13.1230   34.3160 C.ar  352  TRP352      0.0810
    118  CE3       76.4390   11.6090   36.0620 C.ar  352  TRP352      0.0012
    119  CZ2       76.8190   12.2270   33.3020 C.ar  352  TRP352      0.0191
    120  CZ3       76.0680   10.7020   35.0560 C.ar  352  TRP352      0.0001
    121  CH2       76.2630   11.0210   33.6880 C.ar  352  TRP352      0.0015
    122  N         74.6330   14.0180   38.8090 N.am  353  SER353     -0.1952
    123  CA        73.2290   13.8510   38.4220 C.3   353  SER353      0.1924
    124  C         72.1790   14.6490   39.1570 C.2   353  SER353      0.2314
    125  O         71.2060   15.0630   38.5330 O.2   353  SER353     -0.2863
    126  CB        72.8200   12.3840   38.3980 C.3   353  SER353      0.2116
    127  OG        73.5800   11.6800   37.4410 O.3   353  SER353     -0.2180
    128  N         71.8430   17.8810   40.1110 N.3   355  PRO355     -0.2102
    129  CA        71.3830   19.1990   39.6430 C.3   355  PRO355      0.1504
    130  C         70.3960   19.0820   38.4880 C.2   355  PRO355      0.2575
    131  O         69.4660   19.8720   38.3830 O.2   355  PRO355     -0.2718
    132  CB        72.6800   19.8690   39.1900 C.3   355  PRO355      0.0282
    133  CG        73.6910   19.2920   40.1010 C.3   355  PRO355      0.0208
    134  CD        73.3200   17.8370   40.0560 C.3   355  PRO355      0.0893
    135  N         70.6040   18.0700   37.6500 N.am  356  PHE356     -0.1977
    136  CA        69.7600   17.7790   36.4920 C.3   356  PHE356      0.1639
    137  C         68.4960   17.0740   36.9690 C.2   356  PHE356      0.2290
    138  O         67.4150   17.3340   36.4390 O.2   356  PHE356     -0.2864
    139  CB        70.5240   16.8820   35.5260 C.3   356  PHE356      0.0560
    140  CG        69.9480   16.8170   34.1360 C.ar  356  PHE356     -0.0200
    141  CD1       69.9110   17.9620   33.3140 C.ar  356  PHE356     -0.0042
    142  CD2       69.5630   15.5730   33.5890 C.ar  356  PHE356     -0.0042
    143  CE1       69.5120   17.8760   31.9460 C.ar  356  PHE356     -0.0003
    144  CE2       69.1590   15.4600   32.2220 C.ar  356  PHE356     -0.0003
    145  CZ        69.1380   16.6180   31.3970 C.ar  356  PHE356     -0.0000
@<TRIPOS>BOND
     1    50    49    2
     2    49    48    1
     3    43    42    2
     4    48    51    1
     5    48    47    1
     6    51    52    1
     7    42    47   am
     8    42    41    1
     9    54    52   ar
    10    54    56   ar
    11    52    53   ar
    12    56    57   ar
    13    41    44    1
    14    41    40    1
    15    53    55   ar
    16    46    44    1
    17    57    55   ar
    18    57    58    1
    19    44    45    1
    20    40    34   am
    21    35    34    2
    22    34    33    1
    23    33    32    1
    24    33    36    1
    25    32    26   am
    26    27    26    2
    27    24    25    1
    28    26    25    1
    29    36    37    1
    30    30    29    1
    31    28    25    1
    32    28    29    1
    33    39    37   ar
    34    37    38   ar
    35    29    31    1
    36    68    66   ar
    37    68    69   ar
    38    70    69    1
    39    66    64   ar
    40    11     9    1
    41     7     8    1
    42     7     6    1
    43     9     8    2
    44     9    10    1
    45    69    67   ar
    46     5     6    1
    47     5     2    1
    48    64    63    1
    49    64    65   ar
    50    67    65   ar
    51    63    60    1
    52   145   143   ar
    53   145   144   ar
    54     4     3    2
    55    59    60    1
    56    60    61    1
    57     3     2    1
    58     2     1    1
    59   143   141   ar
    60   144   142   ar
    61    61    71   am
    62    61    62    2
    63    74    73    2
    64   119   121   ar
    65   119   117   ar
    66   141   140   ar
    67    12    13    1
    68    71    72    1
    69   142   140   ar
    70   121   120   ar
    71    21    19   ar
    72    21    22   ar
    73    19    17   ar
    74    99    98    1
    75    99    93    1
    76   140   139    1
    77   116   117   ar
    78   116   114   ar
    79   117   115   ar
    80    73    72    1
    81    73    85   am
    82    98    97    1
    83    97    94    1
    84    23    22    1
    85    22    20   ar
    86    17    16    1
    87    17    18   ar
    88    92    90    1
    89    16    13    1
    90    13    14    1
    91    72    75    1
    92    93    94    1
    93    93    87   am
    94   120   118   ar
    95    75    76    1
    96    94    95    1
    97    86    85    1
    98    86    87    1
    99    86    89    1
   100    20    18   ar
   101    14    15    2
   102   114   113   ar
   103    87    88    2
   104   139   136    1
   105   115   118   ar
   106   115   113   ar
   107    90    89    1
   108    90    91    1
   109    77    76   ar
   110    77    79   ar
   111    76    78   ar
   112   113   112    1
   113   138   137    2
   114   136   137    1
   115   136   135    1
   116    95    96    2
   117    79    80   ar
   118   127   126    1
   119   111   110    2
   120    78    80   ar
   121    78    81   ar
   122   135   130   am
   123   107   106    1
   124   112   109    1
   125    80    82   ar
   126   110   109    1
   127   110   122   am
   128    81    83   ar
   129   131   130    2
   130   126   123    1
   131   123   122    1
   132   123   124    1
   133   130   129    1
   134   125   124    2
   135   109   108    1
   136   105   106    1
   137   105   104    1
   138   132   129    1
   139   132   133    1
   140    82    84   ar
   141   103   102    2
   142   129   128    1
   143    83    84   ar
   144   100   101    1
   145   134   133    1
   146   134   128    1
   147   104   101    1
   148   102   101    1
