@<TRIPOS>MOLECULE
tmp/1m6dB00.pdb
 148 145 0 0 0
SMALL
GASTEIGER

@<TRIPOS>ATOM
      1  N         29.1270   39.5760   32.6170 N.3    19  GLN19      -0.1245
      2  CA        30.2070   38.6660   32.2740 C.3    19  GLN19       0.1566
      3  C         31.5320   39.0790   32.9070 C.2    19  GLN19       0.2260
      4  O         32.4560   38.2760   32.9960 O.2    19  GLN19      -0.2867
      5  CB        30.3550   38.5850   30.7500 C.3    19  GLN19       0.0367
      6  CG        30.7260   39.8950   30.0800 C.3    19  GLN19       0.0905
      7  CD        30.6610   39.8100   28.5600 C.2    19  GLN19       0.2608
      8  OE1       29.5830   39.6980   27.9770 O.2    19  GLN19      -0.2717
      9  NE2       31.8180   39.8590   27.9170 N.am   19  GLN19      -0.0878
     10  N         35.6260   38.8390   31.4550 N.3    22  CYS22      -0.1221
     11  CA        35.7770   37.6080   30.6930 C.3    22  CYS22       0.1808
     12  C         34.9970   37.7210   29.3840 C.2    22  CYS22       0.2601
     13  O         33.8460   38.1540   29.3850 O.2    22  CYS22      -0.2717
     14  CB        35.2600   36.4450   31.5380 C.3    22  CYS22       0.0970
     15  SG        35.1130   34.8190   30.7330 S.3    22  CYS22      -0.0800
     16  N         35.6320   37.3490   28.2750 N.am   23  GLY23      -0.1957
     17  CA        34.9760   37.4210   26.9780 C.3    23  GLY23       0.1869
     18  C         34.0420   36.2470   26.7470 C.2    23  GLY23       0.2309
     19  O         34.1580   35.5270   25.7540 O.2    23  GLY23      -0.2863
     20  N         30.6740   36.4280   26.3210 N.3    25  CYS25      -0.1221
     21  CA        29.3900   36.8770   25.7950 C.3    25  CYS25       0.1808
     22  C         28.6000   35.7390   25.1430 C.2    25  CYS25       0.2601
     23  O         27.3900   35.6190   25.3400 O.2    25  CYS25      -0.2717
     24  CB        29.6030   38.0010   24.7810 C.3    25  CYS25       0.0970
     25  SG        30.6660   37.5280   23.3790 S.3    25  CYS25      -0.0800
     26  N         29.2900   34.8990   24.3790 N.am   26  TRP26      -0.1976
     27  CA        28.6360   33.7900   23.6940 C.3    26  TRP26       0.1640
     28  C         27.8470   32.8870   24.6360 C.2    26  TRP26       0.2290
     29  O         26.7580   32.4250   24.2960 O.2    26  TRP26      -0.2864
     30  CB        29.6690   32.9530   22.9390 C.3    26  TRP26       0.0576
     31  CG        30.7150   32.3470   23.8190 C.ar   26  TRP26       0.0006
     32  CD1       31.8450   32.9520   24.3050 C.ar   26  TRP26       0.0946
     33  CD2       30.7150   31.0180   24.3410 C.ar   26  TRP26       0.0152
     34  NE1       32.5450   32.0750   25.0980 N.ar   26  TRP26      -0.2442
     35  CE2       31.8730   30.8810   25.1380 C.ar   26  TRP26       0.0810
     36  CE3       29.8450   29.9250   24.2140 C.ar   26  TRP26       0.0012
     37  CZ2       32.1830   29.6940   25.8080 C.ar   26  TRP26       0.0191
     38  CZ3       30.1540   28.7440   24.8810 C.ar   26  TRP26       0.0001
     39  CH2       31.3140   28.6400   25.6680 C.ar   26  TRP26       0.0015
     40  N         36.1380   28.5270   23.6100 N.3    61  LYS61      -0.1245
     41  CA        37.2740   28.8070   24.4850 C.3    61  LYS61       0.1561
     42  C         37.0320   29.7820   25.6400 C.2    61  LYS61       0.2260
     43  O         37.8470   30.6760   25.8920 O.2    61  LYS61      -0.2867
     44  CB        38.4470   29.3080   23.6380 C.3    61  LYS61       0.0271
     45  CG        38.8110   28.3920   22.4770 C.3    61  LYS61       0.0035
     46  CD        39.2550   27.0210   22.9620 C.3    61  LYS61       0.0206
     47  CE        39.5430   26.0960   21.7890 C.3    61  LYS61       0.1093
     48  NZ        40.0190   24.7610   22.2390 N.3    61  LYS61      -0.1314
     49  N         36.6190   32.5650   28.0540 N.3    63  CYS63      -0.1221
     50  CA        36.8360   34.0110   27.9700 C.3    63  CYS63       0.1808
     51  C         37.4760   34.4780   26.6680 C.2    63  CYS63       0.2601
     52  O         37.5160   35.6790   26.3860 O.2    63  CYS63      -0.2717
     53  CB        37.6850   34.4970   29.1600 C.3    63  CYS63       0.0970
     54  SG        36.9880   34.0380   30.7810 S.3    63  CYS63      -0.0800
     55  N         37.9870   33.5380   25.8800 N.am   64  MET64      -0.1965
     56  CA        38.6060   33.8850   24.6070 C.3    64  MET64       0.1736
     57  C         37.6300   33.8220   23.4350 C.2    64  MET64       0.2617
     58  O         38.0240   34.0080   22.2850 O.2    64  MET64      -0.2715
     59  CB        39.8100   32.9810   24.3290 C.3    64  MET64       0.0427
     60  CG        41.0430   33.3540   25.1360 C.3    64  MET64       0.0599
     61  SD        41.5360   35.0770   24.8590 S.3    64  MET64      -0.1393
     62  CE        42.5040   34.9100   23.3500 C.3    64  MET64       0.0692
     63  N         36.3620   33.5530   23.7270 N.am   65  GLY65      -0.1940
     64  CA        35.3630   33.5090   22.6730 C.3    65  GLY65       0.2014
     65  C         34.7460   32.1590   22.3600 C.2    65  GLY65       0.2639
     66  O         35.3080   31.1070   22.6660 O.2    65  GLY65      -0.2714
     67  N         33.5720   32.2030   21.7370 N.am   66  GLY66      -0.1939
     68  CA        32.8740   30.9910   21.3630 C.3    66  GLY66       0.2014
     69  C         31.7800   31.2720   20.3520 C.2    66  GLY66       0.2639
     70  O         31.5610   32.4200   19.9680 O.2    66  GLY66      -0.2714
     71  N         31.0960   30.2190   19.9160 N.am   67  LEU67      -0.1963
     72  CA        30.0100   30.3490   18.9520 C.3    67  LEU67       0.1713
     73  C         28.7700   29.6460   19.4920 C.2    67  LEU67       0.2458
     74  O         28.8490   28.5170   19.9800 O.2    67  LEU67      -0.2730
     75  CB        30.3950   29.7090   17.6120 C.3    67  LEU67       0.0310
     76  CG        31.6160   30.2730   16.8840 C.3    67  LEU67       0.0022
     77  CD1       31.8900   29.4460   15.6340 C.3    67  LEU67       0.0001
     78  CD2       31.3730   31.7280   16.5210 C.3    67  LEU67       0.0001
     79  N         27.6070   30.3100   19.4230 N.am   68  PRO68      -0.2727
     80  CA        26.3800   29.6880   19.9180 C.3    68  PRO68       0.1402
     81  C         26.1570   28.3050   19.3000 C.2    68  PRO68       0.2269
     82  O         25.6640   27.3980   19.9650 O.2    68  PRO68      -0.2865
     83  CB        25.3100   30.6980   19.5210 C.3    68  PRO68       0.0296
     84  CG        26.0270   32.0060   19.7270 C.3    68  PRO68       0.0237
     85  CD        27.3840   31.7330   19.1000 C.3    68  PRO68       0.0939
     86  N         24.3100   37.4040   16.9420 N.3   133  ALA133     -0.1245
     87  CA        25.6990   37.8410   16.9960 C.3   133  ALA133      0.1562
     88  C         25.7000   39.2020   16.3130 C.2   133  ALA133      0.2260
     89  O         25.0680   39.3760   15.2730 O.2   133  ALA133     -0.2867
     90  CB        26.5920   36.8650   16.2430 C.3   133  ALA133      0.0290
     91  N         29.7770   44.9930   17.7040 N.3   136  ALA136     -0.1245
     92  CA        29.6130   45.8540   18.8710 C.3   136  ALA136      0.1562
     93  C         30.0830   47.3000   18.7080 C.2   136  ALA136      0.2260
     94  O         30.2380   48.0100   19.7010 O.2   136  ALA136     -0.2867
     95  CB        30.3120   45.2190   20.0700 C.3   136  ALA136      0.0290
     96  N         31.6220   40.9540   13.1410 N.3   159  ILE159     -0.1231
     97  CA        30.7720   40.5420   14.2500 C.3   159  ILE159      0.1692
     98  C         31.7410   40.1060   15.3400 C.2   159  ILE159      0.2592
     99  O         32.6980   39.3840   15.0600 O.2   159  ILE159     -0.2718
    100  CB        29.8780   39.3460   13.8490 C.3   159  ILE159      0.0266
    101  CG1       28.9440   39.7540   12.7070 C.3   159  ILE159      0.0019
    102  CG2       29.0870   38.8530   15.0510 C.3   159  ILE159      0.0020
    103  CD1       28.0900   40.9580   13.0150 C.3   159  ILE159      0.0001
    104  N         31.4950   40.5240   16.5770 N.am  160  ASP160     -0.1960
    105  CA        32.4080   40.1910   17.6660 C.3   160  ASP160      0.1840
    106  C         31.7290   40.1030   19.0290 C.2   160  ASP160      0.2622
    107  O         32.3990   40.1200   20.0630 O.2   160  ASP160     -0.2715
    108  CB        33.5110   41.2510   17.7310 C.3   160  ASP160      0.1450
    109  CG        32.9550   42.6650   17.8740 C.2   160  ASP160      0.3671
    110  OD1       33.7500   43.6340   17.8350 O.co2 160  ASP160     -0.2456
    111  OD2       31.7230   42.8120   18.0300 O.co2 160  ASP160     -0.2456
    112  N         30.4060   39.9920   19.0290 N.am  161  HIS161     -0.1959
    113  CA        29.6590   39.9450   20.2760 C.3   161  HIS161      0.1787
    114  C         28.4210   39.0770   20.0680 C.2   161  HIS161      0.2620
    115  O         27.9160   38.9620   18.9480 O.2   161  HIS161     -0.2715
    116  CB        29.2720   41.3820   20.6530 C.3   161  HIS161      0.0785
    117  CG        28.7570   41.5430   22.0490 C.ar  161  HIS161      0.0821
    118  ND1       29.0130   40.6330   23.0520 N.ar  161  HIS161     -0.2267
    119  CD2       28.0390   42.5400   22.6220 C.ar  161  HIS161      0.1154
    120  CE1       28.4740   41.0600   24.1800 C.ar  161  HIS161      0.1986
    121  NE2       27.8790   42.2170   23.9470 N.ar  161  HIS161     -0.2212
    122  N         27.9530   38.4480   21.1370 N.am  162  ALA162     -0.1977
    123  CA        26.7640   37.6040   21.0720 C.3   162  ALA162      0.1597
    124  C         25.8280   38.0890   22.1640 C.2   162  ALA162      0.2287
    125  O         26.2260   38.2060   23.3280 O.2   162  ALA162     -0.2864
    126  CB        27.1310   36.1390   21.2960 C.3   162  ALA162      0.0319
    127  N         26.6020   42.9470   30.2490 N.3   183  TRP183     -0.1241
    128  CA        27.6210   43.7670   30.8890 C.3   183  TRP183      0.1605
    129  C         27.0750   44.4560   32.1390 C.2   183  TRP183      0.2264
    130  O         27.5460   45.5310   32.5100 O.2   183  TRP183     -0.2867
    131  CB        28.1410   44.8380   29.9170 C.3   183  TRP183      0.0550
    132  CG        28.7560   44.3030   28.6470 C.ar  183  TRP183      0.0003
    133  CD1       29.0820   43.0010   28.3640 C.ar  183  TRP183      0.0946
    134  CD2       29.1330   45.0690   27.4950 C.ar  183  TRP183      0.0152
    135  NE1       29.6390   42.9160   27.1040 N.ar  183  TRP183     -0.2442
    136  CE2       29.6810   44.1700   26.5510 C.ar  183  TRP183      0.0810
    137  CE3       29.0600   46.4300   27.1690 C.ar  183  TRP183      0.0012
    138  CZ2       30.1540   44.5900   25.3000 C.ar  183  TRP183      0.0191
    139  CZ3       29.5300   46.8500   25.9250 C.ar  183  TRP183      0.0001
    140  CH2       30.0710   45.9310   25.0070 C.ar  183  TRP183      0.0015
    141  N         23.1370   36.1890   12.0180 N.3   207  MET207     -0.1245
    142  CA        23.4170   34.9660   12.7600 C.3   207  MET207      0.1570
    143  C         22.4590   34.7330   13.9180 C.2   207  MET207      0.2261
    144  O         22.8760   34.5310   15.0640 O.2   207  MET207     -0.2867
    145  CB        24.8630   34.9800   13.2600 C.3   207  MET207      0.0387
    146  CG        25.8850   34.7990   12.1460 C.3   207  MET207      0.0595
    147  SD        27.5860   35.0090   12.6820 S.3   207  MET207     -0.1393
    148  CE        28.4550   34.8430   11.1010 C.3   207  MET207      0.0692
@<TRIPOS>BOND
     1   148   147    1
     2   141   142    1
     3   146   147    1
     4   146   145    1
     5   101   103    1
     6   101   100    1
     7   142   145    1
     8   142   143    1
     9    96    97    1
    10   100    97    1
    11   100   102    1
    12   143   144    2
    13    97    98    1
    14    99    98    2
    15    89    88    2
    16    98   104   am
    17    77    76    1
    18    90    87    1
    19    88    87    1
    20    78    76    1
    21   104   105    1
    22    76    75    1
    23    86    87    1
    24    75    72    1
    25   105   108    1
    26   105   106    1
    27    91    92    1
    28   108   109    1
    29   110   109   ar
    30   109   111   ar
    31    93    92    1
    32    93    94    2
    33    92    95    1
    34   115   114    2
    35    72    73    1
    36    72    71    1
    37   106   112   am
    38   106   107    2
    39   112   113    1
    40    85    79    1
    41    85    84    1
    42    81    80    1
    43    81    82    2
    44    79    73   am
    45    79    80    1
    46    73    74    2
    47    83    84    1
    48    83    80    1
    49    71    69   am
    50    70    69    2
    51   114   113    1
    52   114   122   am
    53   113   116    1
    54    69    68    1
    55   116   117    1
    56   123   122    1
    57   123   126    1
    58   123   124    1
    59    68    67    1
    60    67    65   am
    61    47    48    1
    62    47    46    1
    63   117   119   ar
    64   117   118   ar
    65   124   125    2
    66    58    57    2
    67    65    66    2
    68    65    64    1
    69    45    46    1
    70    45    44    1
    71   119   121   ar
    72    64    63    1
    73    30    27    1
    74    30    31    1
    75   118   120   ar
    76    62    61    1
    77    25    24    1
    78    57    63   am
    79    57    56    1
    80    40    41    1
    81    44    41    1
    82    27    26    1
    83    27    28    1
    84    31    32   ar
    85    31    33   ar
    86   121   120   ar
    87    36    33   ar
    88    36    38   ar
    89    29    28    2
    90    32    34   ar
    91    59    56    1
    92    59    60    1
    93    33    35   ar
    94    26    22   am
    95    41    42    1
    96    56    55    1
    97    24    21    1
    98    61    60    1
    99    38    39   ar
   100   140   138   ar
   101   140   139   ar
   102    34    35   ar
   103    35    37   ar
   104    22    23    2
   105    22    21    1
   106   138   136   ar
   107    42    43    2
   108    39    37   ar
   109    19    18    2
   110    21    20    1
   111    55    51   am
   112   139   137   ar
   113    52    51    2
   114   136   135   ar
   115   136   134   ar
   116    51    50    1
   117    18    17    1
   118    17    16    1
   119   135   133   ar
   120   137   134   ar
   121   134   132   ar
   122     9     7   am
   123    50    49    1
   124    50    53    1
   125     8     7    2
   126    16    12   am
   127   133   132   ar
   128     7     6    1
   129   132   131    1
   130    53    54    1
   131    12    13    2
   132    12    11    1
   133   131   128    1
   134     6     5    1
   135   127   128    1
   136    11    10    1
   137    11    14    1
   138    15    54    1
   139    15    14    1
   140     5     2    1
   141   128   129    1
   142   129   130    2
   143     2     1    1
   144     2     3    1
   145     3     4    2
