@<TRIPOS>MOLECULE
tmp/1m6eA01.pdb
 138 135 0 0 0
SMALL
GASTEIGER

@<TRIPOS>ATOM
      1  N         52.5010   35.7450   36.3200 N.3    10  LYS10      -0.1245
      2  CA        53.6990   35.6680   35.4860 C.3    10  LYS10       0.1561
      3  C         53.7970   37.0140   34.8340 C.2    10  LYS10       0.2260
      4  O         52.7990   37.7180   34.8110 O.2    10  LYS10      -0.2867
      5  CB        53.5140   34.5940   34.4210 C.3    10  LYS10       0.0271
      6  CG        53.0580   33.2470   34.9550 C.3    10  LYS10       0.0035
      7  CD        54.2110   32.3860   35.3040 C.3    10  LYS10       0.0206
      8  CE        53.9120   31.6210   36.5320 C.3    10  LYS10       0.1093
      9  NZ        53.7940   32.6920   37.5200 N.3    10  LYS10      -0.1314
     10  N         56.9460   36.1470   29.6850 N.3    18  TYR18      -0.1241
     11  CA        55.8490   35.1640   29.6480 C.3    18  TYR18       0.1605
     12  C         54.8510   35.2970   28.5360 C.2    18  TYR18       0.2264
     13  O         53.7330   35.8260   28.7090 O.2    18  TYR18      -0.2867
     14  CB        55.0990   35.1020   30.9840 C.3    18  TYR18       0.0534
     15  CG        54.5610   33.7020   31.1860 C.ar   18  TYR18      -0.0201
     16  CD1       55.2220   32.7910   32.0000 C.ar   18  TYR18      -0.0009
     17  CD2       53.5170   33.2230   30.4130 C.ar   18  TYR18      -0.0009
     18  CE1       54.8700   31.4420   32.0190 C.ar   18  TYR18       0.0417
     19  CE2       53.1710   31.8810   30.4300 C.ar   18  TYR18       0.0417
     20  CZ        53.8580   31.0080   31.2260 C.ar   18  TYR18       0.1957
     21  OH        53.5650   29.6840   31.1880 O.3    18  TYR18      -0.2866
     22  N         57.0960   25.2400   28.7000 N.3    25  GLN25      -0.1245
     23  CA        55.7980   24.7680   29.1780 C.3    25  GLN25       0.1566
     24  C         54.9480   24.4540   27.9460 C.2    25  GLN25       0.2260
     25  O         53.9800   23.6820   28.0060 O.2    25  GLN25      -0.2867
     26  CB        55.1160   25.8140   30.0720 C.3    25  GLN25       0.0367
     27  CG        55.7050   27.1960   29.9510 C.3    25  GLN25       0.0905
     28  CD        56.8060   27.4290   30.9420 C.2    25  GLN25       0.2608
     29  OE1       57.8770   27.9300   30.5940 O.2    25  GLN25      -0.2717
     30  NE2       56.5470   27.0810   32.2010 N.am   25  GLN25      -0.0878
     31  N         51.6360   22.8570   34.2640 N.3   147  TYR147     -0.1241
     32  CA        52.5050   23.6170   35.1550 C.3   147  TYR147      0.1605
     33  C         51.9150   24.6810   36.0800 C.2   147  TYR147      0.2264
     34  O         52.4870   25.7810   36.2480 O.2   147  TYR147     -0.2867
     35  CB        53.6210   24.2380   34.3280 C.3   147  TYR147      0.0534
     36  CG        54.7430   23.2990   33.9990 C.ar  147  TYR147     -0.0201
     37  CD1       56.0510   23.7470   34.0320 C.ar  147  TYR147     -0.0009
     38  CD2       54.5110   21.9560   33.6800 C.ar  147  TYR147     -0.0009
     39  CE1       57.1170   22.8910   33.7670 C.ar  147  TYR147      0.0417
     40  CE2       55.5690   21.0860   33.4070 C.ar  147  TYR147      0.0417
     41  CZ        56.8760   21.5690   33.4550 C.ar  147  TYR147      0.1957
     42  OH        57.9680   20.7740   33.2020 O.3   147  TYR147     -0.2866
     43  N         51.5430   22.8630   40.9460 N.3   150  MET150     -0.1230
     44  CA        52.5840   22.6960   41.9450 C.3   150  MET150      0.1702
     45  C         52.6050   23.9480   42.8050 C.2   150  MET150      0.2592
     46  O         53.1940   23.9650   43.8790 O.2   150  MET150     -0.2718
     47  CB        53.9620   22.5200   41.3210 C.3   150  MET150      0.0401
     48  CG        54.4820   23.7430   40.6890 C.3   150  MET150      0.0596
     49  SD        53.9860   23.7770   38.9840 S.3   150  MET150     -0.1393
     50  CE        55.5820   23.8970   38.2580 C.3   150  MET150      0.0692
     51  N         51.9730   25.0110   42.3260 N.am  151  TRP151     -0.1976
     52  CA        51.9310   26.2340   43.1000 C.3   151  TRP151      0.1640
     53  C         51.0480   26.0030   44.2880 C.2   151  TRP151      0.2290
     54  O         49.9730   25.3750   44.1960 O.2   151  TRP151     -0.2864
     55  CB        51.4020   27.3710   42.2710 C.3   151  TRP151      0.0576
     56  CG        52.4180   27.8650   41.3520 C.ar  151  TRP151      0.0006
     57  CD1       52.3840   27.8140   40.0050 C.ar  151  TRP151      0.0946
     58  CD2       53.6150   28.5570   41.7090 C.ar  151  TRP151      0.0152
     59  NE1       53.4760   28.4390   39.4880 N.ar  151  TRP151     -0.2442
     60  CE2       54.2550   28.9110   40.5090 C.ar  151  TRP151      0.0810
     61  CE3       54.2080   28.9150   42.9300 C.ar  151  TRP151      0.0012
     62  CZ2       55.4740   29.6240   40.4760 C.ar  151  TRP151      0.0191
     63  CZ3       55.4250   29.6240   42.9010 C.ar  151  TRP151      0.0001
     64  CH2       56.0410   29.9720   41.6740 C.ar  151  TRP151      0.0015
     65  N         54.5690   19.9110   37.6040 N.3   210  LEU210     -0.1245
     66  CA        56.0100   19.7440   37.5420 C.3   210  LEU210      0.1561
     67  C         56.4490   19.1730   38.8960 C.2   210  LEU210      0.2260
     68  O         56.3300   19.8440   39.9350 O.2   210  LEU210     -0.2867
     69  CB        56.6880   21.0760   37.3290 C.3   210  LEU210      0.0270
     70  CG        58.1410   21.0790   37.7750 C.3   210  LEU210      0.0019
     71  CD1       58.9990   21.2920   36.5590 C.3   210  LEU210      0.0001
     72  CD2       58.3870   22.1640   38.8050 C.3   210  LEU210      0.0001
     73  N         67.5480   25.1820   40.5510 N.3   225  ILE225     -0.1231
     74  CA        66.8370   26.1960   39.7430 C.3   225  ILE225      0.1692
     75  C         66.5000   27.2950   40.7270 C.2   225  ILE225      0.2592
     76  O         66.6600   28.4800   40.4310 O.2   225  ILE225     -0.2718
     77  CB        65.4870   25.7010   39.0610 C.3   225  ILE225      0.0266
     78  CG1       65.0540   26.6910   37.9700 C.3   225  ILE225      0.0019
     79  CG2       64.3370   25.6560   40.0590 C.3   225  ILE225      0.0020
     80  CD1       66.1180   27.0360   36.9160 C.3   225  ILE225      0.0001
     81  N         66.0350   26.8780   41.9060 N.am  226  TRP226     -0.1976
     82  CA        65.7090   27.7930   42.9950 C.3   226  TRP226      0.1640
     83  C         66.9960   27.9020   43.7800 C.2   226  TRP226      0.2290
     84  O         67.4590   29.0050   44.0820 O.2   226  TRP226     -0.2864
     85  CB        64.5850   27.2220   43.8440 C.3   226  TRP226      0.0576
     86  CG        63.2570   27.2220   43.1130 C.ar  226  TRP226      0.0006
     87  CD1       62.4230   26.1630   42.9650 C.ar  226  TRP226      0.0946
     88  CD2       62.5620   28.3580   42.5560 C.ar  226  TRP226      0.0152
     89  NE1       61.2560   26.5570   42.3740 N.ar  226  TRP226     -0.2442
     90  CE2       61.3060   27.8960   42.1100 C.ar  226  TRP226      0.0810
     91  CE3       62.8770   29.7190   42.4000 C.ar  226  TRP226      0.0012
     92  CZ2       60.3500   28.7390   41.5220 C.ar  226  TRP226      0.0191
     93  CZ3       61.9240   30.5630   41.8090 C.ar  226  TRP226      0.0001
     94  CH2       60.6760   30.0650   41.3800 C.ar  226  TRP226      0.0015
     95  N         55.6010   26.1310   46.4790 N.3   255  TYR255     -0.1241
     96  CA        55.0680   25.1560   45.5840 C.3   255  TYR255      0.1605
     97  C         55.8670   23.9100   45.9360 C.2   255  TYR255      0.2264
     98  O         56.8800   24.0470   46.6110 O.2   255  TYR255     -0.2867
     99  CB        55.2120   25.6760   44.1310 C.3   255  TYR255      0.0534
    100  CG        56.5590   25.5790   43.4660 C.ar  255  TYR255     -0.0201
    101  CD1       56.6560   25.1090   42.1590 C.ar  255  TYR255     -0.0009
    102  CD2       57.7300   25.7990   44.1670 C.ar  255  TYR255     -0.0009
    103  CE1       57.8710   24.8240   41.5780 C.ar  255  TYR255      0.0417
    104  CE2       58.9670   25.5160   43.5880 C.ar  255  TYR255      0.0417
    105  CZ        59.0260   25.0110   42.2990 C.ar  255  TYR255      0.1957
    106  OH        60.2270   24.5650   41.7870 O.3   255  TYR255     -0.2866
    107  N         62.9000   32.7960   31.3960 N.3   307  CYS307     -0.1221
    108  CA        61.7460   31.9830   31.7160 C.3   307  CYS307      0.1808
    109  C         61.5400   32.0410   33.2360 C.2   307  CYS307      0.2601
    110  O         60.4570   32.3410   33.7290 O.2   307  CYS307     -0.2717
    111  CB        61.9850   30.5460   31.2910 C.3   307  CYS307      0.0970
    112  SG        60.8230   29.4030   32.0380 S.3   307  CYS307     -0.0800
    113  N         62.5910   31.7470   33.9870 N.am  308  MET308     -0.1979
    114  CA        62.5060   31.7780   35.4350 C.3   308  MET308      0.1605
    115  C         62.3520   33.2100   35.9230 C.2   308  MET308      0.2287
    116  O         62.1150   33.4440   37.1090 O.2   308  MET308     -0.2864
    117  CB        63.7420   31.1120   36.0420 C.3   308  MET308      0.0413
    118  CG        63.6400   29.6030   36.0420 C.3   308  MET308      0.0598
    119  SD        62.2030   29.0790   37.0240 S.3   308  MET308     -0.1393
    120  CE        62.5830   29.8200   38.6650 C.3   308  MET308      0.0692
    121  N         58.6570   34.0330   35.3600 N.3   311  VAL311     -0.1245
    122  CA        57.9560   33.1710   36.3050 C.3   311  VAL311      0.1561
    123  C         58.0450   33.6520   37.7630 C.2   311  VAL311      0.2260
    124  O         57.1040   33.4630   38.5390 O.2   311  VAL311     -0.2867
    125  CB        58.5260   31.7030   36.1890 C.3   311  VAL311      0.0252
    126  CG1       58.0290   30.8280   37.3060 C.3   311  VAL311      0.0019
    127  CG2       58.1610   31.1100   34.8380 C.3   311  VAL311      0.0019
    128  N         63.6550   18.7210   34.0650 N.3   347  PHE347     -0.1241
    129  CA        62.5400   18.7430   35.0150 C.3   347  PHE347      0.1605
    130  C         61.7200   17.4520   34.8660 C.2   347  PHE347      0.2264
    131  O         61.7710   16.7990   33.8410 O.2   347  PHE347     -0.2867
    132  CB        61.5680   19.8990   34.7290 C.3   347  PHE347      0.0534
    133  CG        62.1800   21.2850   34.7260 C.ar  347  PHE347     -0.0203
    134  CD1       62.4610   21.9310   33.5300 C.ar  347  PHE347     -0.0042
    135  CD2       62.3370   21.9950   35.9030 C.ar  347  PHE347     -0.0042
    136  CE1       62.8740   23.2690   33.5130 C.ar  347  PHE347     -0.0003
    137  CE2       62.7520   23.3270   35.8820 C.ar  347  PHE347     -0.0003
    138  CZ        63.0160   23.9610   34.6850 C.ar  347  PHE347     -0.0000
@<TRIPOS>BOND
     1    24    25    2
     2    24    23    1
     3    12    13    2
     4    12    11    1
     5    22    23    1
     6    23    26    1
     7    11    10    1
     8    11    14    1
     9    27    26    1
    10    27    28    1
    11    17    19   ar
    12    17    15   ar
    13    19    20   ar
    14    29    28    2
    15    28    30   am
    16    14    15    1
    17    15    16   ar
    18    21    20    1
    19    20    18   ar
    20   111   108    1
    21   111   112    1
    22   107   108    1
    23   108   109    1
    24    16    18   ar
    25    42    41    1
    26   109   110    2
    27   109   113   am
    28    40    41   ar
    29    40    38   ar
    30    41    39   ar
    31   136   134   ar
    32   136   138   ar
    33   134   133   ar
    34    38    36   ar
    35    39    37   ar
    36   131   130    2
    37   113   114    1
    38    36    37   ar
    39    36    35    1
    40   128   129    1
    41    31    32    1
    42    35    32    1
    43     5     6    1
    44     5     2    1
    45   138   137   ar
    46   133   132    1
    47   133   135   ar
    48   132   129    1
    49     4     3    2
    50     3     2    1
    51   127   125    1
    52   130   129    1
    53     6     7    1
    54    32    33    1
    55     7     8    1
    56   121   122    1
    57   114   115    1
    58   114   117    1
    59     2     1    1
    60   137   135   ar
    61   115   116    2
    62   118   117    1
    63   118   119    1
    64    33    34    2
    65   125   122    1
    66   125   126    1
    67   122   123    1
    68     8     9    1
    69    71    70    1
    70    80    78    1
    71   119   120    1
    72    69    66    1
    73    69    70    1
    74    66    65    1
    75    66    67    1
    76   123   124    2
    77    70    72    1
    78    78    77    1
    79    50    49    1
    80    67    68    2
    81    49    48    1
    82    77    74    1
    83    77    79    1
    84    59    57   ar
    85    59    60   ar
    86    74    73    1
    87    74    75    1
    88    57    56   ar
    89    76    75    2
    90    62    60   ar
    91    62    64   ar
    92    60    58   ar
    93    48    47    1
    94    75    81   am
    95    43    44    1
    96    47    44    1
    97    56    58   ar
    98    56    55    1
    99    94    92   ar
   100    94    93   ar
   101    92    90   ar
   102   103   101   ar
   103   103   105   ar
   104    64    63   ar
   105    58    61   ar
   106   106   105    1
   107    93    91   ar
   108    81    82    1
   109    44    45    1
   110    90    89   ar
   111    90    88   ar
   112   101   100   ar
   113    55    52    1
   114   105   104   ar
   115    51    45   am
   116    51    52    1
   117    89    87   ar
   118    91    88   ar
   119    88    86   ar
   120    45    46    2
   121    63    61   ar
   122    87    86   ar
   123    82    83    1
   124    82    85    1
   125    52    53    1
   126    86    85    1
   127   100    99    1
   128   100   102   ar
   129   104   102   ar
   130    83    84    2
   131    99    96    1
   132    54    53    2
   133    96    97    1
   134    96    95    1
   135    97    98    2
