@<TRIPOS>MOLECULE
tmp/1m6eA00.pdb
 215 210 0 0 0
SMALL
GASTEIGER

@<TRIPOS>ATOM
      1  N         51.2530   36.5950   43.3230 N.3     8  HIS8       -0.1226
      2  CA        51.8360   36.1060   42.0950 C.3     8  HIS8        0.1752
      3  C         51.0020   35.8400   40.8660 C.2     8  HIS8        0.2596
      4  O         49.8220   35.4380   40.9080 O.2     8  HIS8       -0.2718
      5  CB        52.7130   34.8850   42.3580 C.3     8  HIS8        0.0759
      6  CG        51.9890   33.5770   42.2990 C.ar    8  HIS8        0.0818
      7  ND1       52.6510   32.3780   42.1360 N.ar    8  HIS8       -0.2268
      8  CD2       50.6730   33.2760   42.3860 C.ar    8  HIS8        0.1154
      9  CE1       51.7710   31.3930   42.1190 C.ar    8  HIS8        0.1986
     10  NE2       50.5640   31.9110   42.2680 N.ar    8  HIS8       -0.2212
     11  N         51.6980   36.0800   39.7640 N.am    9  MET9       -0.1965
     12  CA        51.2310   35.9200   38.4040 C.3     9  MET9        0.1736
     13  C         52.5570   35.8720   37.6420 C.2     9  MET9        0.2616
     14  O         53.6130   35.9630   38.2540 O.2     9  MET9       -0.2715
     15  CB        50.4120   37.1340   37.9550 C.3     9  MET9        0.0427
     16  CG        51.2350   38.4000   37.6690 C.3     9  MET9        0.0599
     17  SD        51.4680   39.4480   39.1010 S.3     9  MET9       -0.1393
     18  CE        52.1950   40.9310   38.3230 C.3     9  MET9        0.0692
     19  N         52.5010   35.7450   36.3200 N.am   10  LYS10      -0.1977
     20  CA        53.6990   35.6680   35.4860 C.3    10  LYS10       0.1596
     21  C         53.7970   37.0140   34.8340 C.2    10  LYS10       0.2287
     22  O         52.7990   37.7180   34.8110 O.2    10  LYS10      -0.2864
     23  CB        53.5140   34.5940   34.4210 C.3    10  LYS10       0.0298
     24  CG        53.0580   33.2470   34.9550 C.3    10  LYS10       0.0038
     25  CD        54.2110   32.3860   35.3040 C.3    10  LYS10       0.0206
     26  CE        53.9120   31.6210   36.5320 C.3    10  LYS10       0.1093
     27  NZ        53.7940   32.6920   37.5200 N.3    10  LYS10      -0.1314
     28  N         56.9460   36.1470   29.6850 N.3    18  TYR18      -0.1241
     29  CA        55.8490   35.1640   29.6480 C.3    18  TYR18       0.1605
     30  C         54.8510   35.2970   28.5360 C.2    18  TYR18       0.2264
     31  O         53.7330   35.8260   28.7090 O.2    18  TYR18      -0.2867
     32  CB        55.0990   35.1020   30.9840 C.3    18  TYR18       0.0534
     33  CG        54.5610   33.7020   31.1860 C.ar   18  TYR18      -0.0201
     34  CD1       55.2220   32.7910   32.0000 C.ar   18  TYR18      -0.0009
     35  CD2       53.5170   33.2230   30.4130 C.ar   18  TYR18      -0.0009
     36  CE1       54.8700   31.4420   32.0190 C.ar   18  TYR18       0.0417
     37  CE2       53.1710   31.8810   30.4300 C.ar   18  TYR18       0.0417
     38  CZ        53.8580   31.0080   31.2260 C.ar   18  TYR18       0.1957
     39  OH        53.5650   29.6840   31.1880 O.3    18  TYR18      -0.2866
     40  N         57.0960   25.2400   28.7000 N.3    25  GLN25      -0.1245
     41  CA        55.7980   24.7680   29.1780 C.3    25  GLN25       0.1566
     42  C         54.9480   24.4540   27.9460 C.2    25  GLN25       0.2260
     43  O         53.9800   23.6820   28.0060 O.2    25  GLN25      -0.2867
     44  CB        55.1160   25.8140   30.0720 C.3    25  GLN25       0.0367
     45  CG        55.7050   27.1960   29.9510 C.3    25  GLN25       0.0905
     46  CD        56.8060   27.4290   30.9420 C.2    25  GLN25       0.2608
     47  OE1       57.8770   27.9300   30.5940 O.2    25  GLN25      -0.2717
     48  NE2       56.5470   27.0810   32.2010 N.am   25  GLN25      -0.0878
     49  N         53.0920   20.7340   26.9530 N.3    29  ILE29      -0.1245
     50  CA        51.6890   20.6000   26.5820 C.3    29  ILE29       0.1561
     51  C         51.5730   19.8140   25.2850 C.2    29  ILE29       0.2260
     52  O         50.5520   19.1430   25.0330 O.2    29  ILE29      -0.2867
     53  CB        51.0020   21.9850   26.3990 C.3    29  ILE29       0.0252
     54  CG1       51.0090   22.7410   27.7420 C.3    29  ILE29       0.0019
     55  CG2       49.5750   21.7870   25.8420 C.3    29  ILE29       0.0019
     56  CD1       50.6340   24.2170   27.6900 C.3    29  ILE29       0.0001
     57  N         40.5390   25.5610   31.1900 N.3    57  ASP57      -0.1239
     58  CA        41.9680   25.5230   31.5420 C.3    57  ASP57       0.1674
     59  C         42.1870   26.1570   32.9210 C.2    57  ASP57       0.2266
     60  O         41.7640   27.2670   33.1800 O.2    57  ASP57      -0.2867
     61  CB        42.8360   26.2430   30.4910 C.3    57  ASP57       0.1410
     62  CG        44.3420   25.7950   30.5300 C.2    57  ASP57       0.3668
     63  OD1       45.0280   25.9300   31.5850 O.co2  57  ASP57      -0.2456
     64  OD2       44.8450   25.3050   29.4840 O.co2  57  ASP57      -0.2456
     65  N         44.7490   27.6230   35.6140 N.3    59  GLY59      -0.1210
     66  CA        46.0930   28.1360   35.7650 C.3    59  GLY59       0.1956
     67  C         46.6750   28.4020   34.3910 C.2    59  GLY59       0.2612
     68  O         47.8380   28.1010   34.1210 O.2    59  GLY59      -0.2717
     69  N         45.8440   28.9400   33.5030 N.am   60  CYS60      -0.1956
     70  CA        46.2560   29.2890   32.1360 C.3    60  CYS60       0.1843
     71  C         47.0950   30.5080   32.3900 C.2    60  CYS60       0.2626
     72  O         47.4210   30.7890   33.5340 O.2    60  CYS60      -0.2714
     73  CB        45.0410   29.6930   31.2880 C.3    60  CYS60       0.0997
     74  SG        44.1390   31.1960   31.8840 S.3    60  CYS60      -0.0797
     75  N         47.4590   31.2590   31.3730 N.am   61  SER61      -0.1950
     76  CA        48.2170   32.4300   31.7210 C.3    61  SER61       0.1924
     77  C         47.9560   33.5970   30.8130 C.2    61  SER61       0.2314
     78  O         46.8670   34.1450   30.8100 O.2    61  SER61      -0.2863
     79  CB        49.6890   32.1100   31.7560 C.3    61  SER61       0.2116
     80  OG        50.2640   32.8700   32.7990 O.3    61  SER61      -0.2180
     81  N         49.4260   29.2050   24.8490 N.3    65  ASN65      -0.1240
     82  CA        49.3020   28.2100   25.9310 C.3    65  ASN65       0.1653
     83  C         47.9630   28.3580   26.6320 C.2    65  ASN65       0.2266
     84  O         47.2890   27.3680   26.9070 O.2    65  ASN65      -0.2867
     85  CB        50.4290   28.3070   26.9740 C.3    65  ASN65       0.1155
     86  CG        51.8080   28.4740   26.3470 C.2    65  ASN65       0.2627
     87  OD1       52.3840   29.5660   26.3890 O.2    65  ASN65      -0.2716
     88  ND2       52.3400   27.4080   25.7630 N.am   65  ASN65      -0.0877
     89  N         41.0120   30.0990   33.5750 N.3    97  ASN97      -0.1225
     90  CA        41.1560   30.4590   34.9720 C.3    97  ASN97       0.1785
     91  C         42.5410   30.7800   35.4750 C.2    97  ASN97       0.2597
     92  O         43.5380   30.1090   35.1790 O.2    97  ASN97      -0.2718
     93  CB        40.5940   29.3650   35.8780 C.3    97  ASN97       0.1169
     94  CG        41.1340   29.4590   37.3120 C.2    97  ASN97       0.2627
     95  OD1       42.1540   28.8420   37.6750 O.2    97  ASN97      -0.2716
     96  ND2       40.4590   30.2500   38.1230 N.am   97  ASN97      -0.0877
     97  N         42.5920   31.8210   36.2760 N.am   98  ASP98      -0.1960
     98  CA        43.8400   32.1510   36.8600 C.3    98  ASP98       0.1840
     99  C         43.5810   33.0530   38.0100 C.2    98  ASP98       0.2621
    100  O         42.4240   33.4220   38.2430 O.2    98  ASP98      -0.2715
    101  CB        44.7700   32.7810   35.8550 C.3    98  ASP98       0.1450
    102  CG        46.2040   32.6350   36.2710 C.2    98  ASP98       0.3671
    103  OD1       46.5360   33.2070   37.3310 O.co2  98  ASP98      -0.2456
    104  OD2       46.9810   31.9400   35.5770 O.co2  98  ASP98      -0.2456
    105  N         44.6370   33.3770   38.7570 N.am   99  LEU99      -0.1977
    106  CA        44.4740   34.2330   39.9180 C.3    99  LEU99       0.1596
    107  C         44.1200   35.6070   39.4340 C.2    99  LEU99       0.2287
    108  O         44.4130   35.9560   38.2810 O.2    99  LEU99      -0.2864
    109  CB        45.7530   34.2820   40.7540 C.3    99  LEU99       0.0297
    110  CG        46.0110   32.9750   41.4830 C.3    99  LEU99       0.0022
    111  CD1       47.2710   33.0900   42.2530 C.3    99  LEU99       0.0001
    112  CD2       44.8520   32.6650   42.3890 C.3    99  LEU99       0.0001
    113  N         46.1910   38.3490   36.7270 N.3   102  ASN102     -0.1240
    114  CA        46.9580   37.6140   35.7460 C.3   102  ASN102      0.1653
    115  C         46.6790   38.5720   34.5690 C.2   102  ASN102      0.2266
    116  O         46.0060   39.5760   34.7610 O.2   102  ASN102     -0.2867
    117  CB        46.3300   36.2470   35.4980 C.3   102  ASN102      0.1155
    118  CG        46.7260   35.6610   34.1490 C.2   102  ASN102      0.2627
    119  OD1       47.9390   35.5950   33.8170 O.2   102  ASN102     -0.2716
    120  ND2       45.7190   35.2370   33.3560 N.am  102  ASN102     -0.0877
    121  N         40.2940   33.5860   39.9530 N.3   128  GLY128     -0.1210
    122  CA        40.1790   32.9990   41.2670 C.3   128  GLY128      0.1956
    123  C         41.1190   31.8420   41.4940 C.2   128  GLY128      0.2613
    124  O         41.7720   31.3820   40.5700 O.2   128  GLY128     -0.2717
    125  N         41.1810   31.3590   42.7260 N.am  129  SER129     -0.1938
    126  CA        42.0610   30.2640   43.0360 C.3   129  SER129      0.2055
    127  C         41.3530   28.9440   42.8170 C.2   129  SER129      0.2643
    128  O         40.1760   28.7980   43.1150 O.2   129  SER129     -0.2714
    129  CB        42.5300   30.3770   44.4740 C.3   129  SER129      0.2130
    130  OG        43.4420   29.3410   44.7820 O.3   129  SER129     -0.2179
    131  N         42.0760   27.9780   42.2710 N.am  130  PHE130     -0.1959
    132  CA        41.4820   26.6850   42.0120 C.3   130  PHE130      0.1771
    133  C         41.5870   25.8500   43.2710 C.2   130  PHE130      0.2619
    134  O         41.4280   24.6190   43.2620 O.2   130  PHE130     -0.2715
    135  CB        42.1290   25.9760   40.7800 C.3   130  PHE130      0.0574
    136  CG        43.6400   25.9150   40.7870 C.ar  130  PHE130     -0.0200
    137  CD1       44.3550   25.6350   41.9500 C.ar  130  PHE130     -0.0042
    138  CD2       44.3490   26.1640   39.6060 C.ar  130  PHE130     -0.0042
    139  CE1       45.7740   25.6180   41.9390 C.ar  130  PHE130     -0.0003
    140  CE2       45.7570   26.1490   39.5760 C.ar  130  PHE130     -0.0003
    141  CZ        46.4720   25.8770   40.7570 C.ar  130  PHE130     -0.0000
    142  N         41.8910   26.5270   44.3660 N.am  131  TYR131     -0.1974
    143  CA        41.9620   25.8320   45.6440 C.3   131  TYR131      0.1639
    144  C         40.6970   26.3750   46.2870 C.2   131  TYR131      0.2290
    145  O         40.7280   27.0290   47.3250 O.2   131  TYR131     -0.2864
    146  CB        43.2390   26.1860   46.4560 C.3   131  TYR131      0.0560
    147  CG        44.5240   25.5080   45.9800 C.ar  131  TYR131     -0.0198
    148  CD1       45.6760   26.2450   45.7420 C.ar  131  TYR131     -0.0009
    149  CD2       44.5730   24.1420   45.7250 C.ar  131  TYR131     -0.0009
    150  CE1       46.8650   25.6330   45.2420 C.ar  131  TYR131      0.0417
    151  CE2       45.7420   23.5230   45.2270 C.ar  131  TYR131      0.0417
    152  CZ        46.8780   24.2860   44.9850 C.ar  131  TYR131      0.1957
    153  OH        47.9940   23.7110   44.4410 O.3   131  TYR131     -0.2866
    154  N         41.5670   20.9430   31.7570 N.3   144  HIS144     -0.1241
    155  CA        42.9770   20.8120   31.4410 C.3   144  HIS144      0.1621
    156  C         43.8560   21.5740   32.4560 C.2   144  HIS144      0.2264
    157  O         43.3590   22.4580   33.1130 O.2   144  HIS144     -0.2867
    158  CB        43.2720   21.3220   30.0240 C.3   144  HIS144      0.0745
    159  CG        44.7160   21.2180   29.6810 C.ar  144  HIS144      0.0817
    160  ND1       45.5770   22.2920   29.7760 N.ar  144  HIS144     -0.2268
    161  CD2       45.4960   20.1280   29.4920 C.ar  144  HIS144      0.1154
    162  CE1       46.8250   21.8660   29.6730 C.ar  144  HIS144      0.1986
    163  NE2       46.8030   20.5560   29.5050 N.ar  144  HIS144     -0.2212
    164  N         48.2770   22.4210   32.8260 N.3   146  SER146     -0.1202
    165  CA        49.7280   22.2270   32.9090 C.3   146  SER146      0.2020
    166  C         50.4120   23.2070   33.8900 C.2   146  SER146      0.2619
    167  O         49.8450   24.2240   34.2900 O.2   146  SER146     -0.2717
    168  CB        50.3840   22.3550   31.5320 C.3   146  SER146      0.2103
    169  OG        50.4200   21.1110   30.8730 O.3   146  SER146     -0.2182
    170  N         51.6360   22.8570   34.2640 N.am  147  TYR147     -0.1961
    171  CA        52.5050   23.6170   35.1550 C.3   147  TYR147      0.1771
    172  C         51.9150   24.6810   36.0800 C.2   147  TYR147      0.2620
    173  O         52.4870   25.7810   36.2480 O.2   147  TYR147     -0.2715
    174  CB        53.6210   24.2380   34.3280 C.3   147  TYR147      0.0574
    175  CG        54.7430   23.2990   33.9990 C.ar  147  TYR147     -0.0198
    176  CD1       56.0510   23.7470   34.0320 C.ar  147  TYR147     -0.0009
    177  CD2       54.5110   21.9560   33.6800 C.ar  147  TYR147     -0.0009
    178  CE1       57.1170   22.8910   33.7670 C.ar  147  TYR147      0.0417
    179  CE2       55.5690   21.0860   33.4070 C.ar  147  TYR147      0.0417
    180  CZ        56.8760   21.5690   33.4550 C.ar  147  TYR147      0.1957
    181  OH        57.9680   20.7740   33.2020 O.3   147  TYR147     -0.2866
    182  N         50.7820   24.3710   36.6960 N.am  148  SER148     -0.1950
    183  CA        50.2000   25.3290   37.6050 C.3   148  SER148      0.1924
    184  C         49.8670   24.6810   38.9330 C.2   148  SER148      0.2314
    185  O         49.9100   25.3240   39.9810 O.2   148  SER148     -0.2863
    186  CB        48.9520   25.9220   37.0160 C.3   148  SER148      0.2116
    187  OG        47.8740   25.0560   37.2480 O.3   148  SER148     -0.2180
    188  N         51.9730   25.0110   42.3260 N.3   151  TRP151     -0.1227
    189  CA        51.9310   26.2340   43.1000 C.3   151  TRP151      0.1737
    190  C         51.0480   26.0030   44.2880 C.2   151  TRP151      0.2595
    191  O         49.9730   25.3750   44.1960 O.2   151  TRP151     -0.2718
    192  CB        51.4020   27.3710   42.2710 C.3   151  TRP151      0.0564
    193  CG        52.4180   27.8650   41.3520 C.ar  151  TRP151      0.0003
    194  CD1       52.3840   27.8140   40.0050 C.ar  151  TRP151      0.0946
    195  CD2       53.6150   28.5570   41.7090 C.ar  151  TRP151      0.0152
    196  NE1       53.4760   28.4390   39.4880 N.ar  151  TRP151     -0.2442
    197  CE2       54.2550   28.9110   40.5090 C.ar  151  TRP151      0.0810
    198  CE3       54.2080   28.9150   42.9300 C.ar  151  TRP151      0.0012
    199  CZ2       55.4740   29.6240   40.4760 C.ar  151  TRP151      0.0191
    200  CZ3       55.4250   29.6240   42.9010 C.ar  151  TRP151      0.0001
    201  CH2       56.0410   29.9720   41.6740 C.ar  151  TRP151      0.0015
    202  N         51.5050   26.5070   45.4230 N.am  152  LEU152     -0.1966
    203  CA        50.7530   26.3120   46.6340 C.3   152  LEU152      0.1728
    204  C         49.7310   27.4020   46.9960 C.2   152  LEU152      0.2616
    205  O         49.7110   28.5110   46.4550 O.2   152  LEU152     -0.2715
    206  CB        51.7340   26.0950   47.7810 C.3   152  LEU152      0.0311
    207  CG        52.4190   24.7430   47.8450 C.3   152  LEU152      0.0022
    208  CD1       53.4830   24.7860   48.9050 C.3   152  LEU152      0.0001
    209  CD2       51.3820   23.6760   48.1490 C.3   152  LEU152      0.0001
    210  N         48.8510   27.0370   47.9130 N.am  153  SER153     -0.1950
    211  CA        47.8460   27.9450   48.4240 C.3   153  SER153      0.1924
    212  C         48.5940   29.0800   49.1170 C.2   153  SER153      0.2314
    213  O         48.2460   30.2520   48.9630 O.2   153  SER153     -0.2863
    214  CB        46.9330   27.1750   49.4050 C.3   153  SER153      0.2116
    215  OG        46.5220   27.9070   50.5480 O.3   153  SER153     -0.2180
@<TRIPOS>BOND
     1    81    82    1
     2    52    51    2
     3    51    50    1
     4    88    86   am
     5    55    53    1
     6    82    83    1
     7    82    85    1
     8    86    87    2
     9    86    85    1
    10    53    50    1
    11    53    54    1
    12    50    49    1
    13    83    84    2
    14    56    54    1
    15    42    43    2
    16    42    41    1
    17    30    31    2
    18    30    29    1
    19    40    41    1
    20    41    44    1
    21    64    62   ar
    22   161   163   ar
    23   161   159   ar
    24   163   162   ar
    25    29    28    1
    26    29    32    1
    27   162   160   ar
    28   159   160   ar
    29   159   158    1
    30    45    44    1
    31    45    46    1
    32   158   155    1
    33    35    37   ar
    34    35    33   ar
    35    37    38   ar
    36    61    62    1
    37    61    58    1
    38    62    63   ar
    39    47    46    2
    40    78    77    2
    41    77    76    1
    42   169   168    1
    43    46    48   am
    44    32    33    1
    45    33    34   ar
    46    39    38    1
    47    57    58    1
    48    38    36   ar
    49    73    74    1
    50    73    70    1
    51    75    76    1
    52    75    71   am
    53   155   154    1
    54   155   156    1
    55   168   165    1
    56    58    59    1
    57    76    79    1
    58    79    80    1
    59    34    36   ar
    60    70    71    1
    61    70    69    1
    62    71    72    2
    63   156   157    2
    64   164   165    1
    65   165   166    1
    66    59    60    2
    67   181   180    1
    68   120   118   am
    69   179   180   ar
    70   179   177   ar
    71   180   178   ar
    72    69    67   am
    73    89    90    1
    74   177   175   ar
    75   178   176   ar
    76   119   118    2
    77   166   170   am
    78   166   167    2
    79   175   176   ar
    80   175   174    1
    81    68    67    2
    82   118   117    1
    83   170   171    1
    84   174   171    1
    85    67    66    1
    86    23    24    1
    87    23    20    1
    88   115   116    2
    89   115   114    1
    90    22    21    2
    91    21    20    1
    92    24    25    1
    93    90    91    1
    94    90    93    1
    95   171   172    1
    96    92    91    2
    97    25    26    1
    98    91    97   am
    99    20    19    1
   100   117   114    1
   101   104   102   ar
   102    65    66    1
   103   114   113    1
   104   101   102    1
   105   101    98    1
   106    93    94    1
   107   172   173    2
   108   172   182   am
   109   102   103   ar
   110    97    98    1
   111    19    13   am
   112    26    27    1
   113   182   183    1
   114    98    99    1
   115   186   187    1
   116   186   183    1
   117    94    95    2
   118    94    96   am
   119   183   184    1
   120    13    14    2
   121    13    12    1
   122    16    15    1
   123    16    17    1
   124    15    12    1
   125    99   100    2
   126    99   105   am
   127   108   107    2
   128    18    17    1
   129    12    11    1
   130   105   106    1
   131   184   185    2
   132   107   106    1
   133   196   194   ar
   134   196   197   ar
   135   140   138   ar
   136   140   141   ar
   137   138   136   ar
   138    11     3   am
   139   106   109    1
   140   121   122    1
   141   194   193   ar
   142   199   197   ar
   143   199   201   ar
   144   197   195   ar
   145   124   123    2
   146   109   110    1
   147   141   139   ar
   148   135   136    1
   149   135   132    1
   150   136   137   ar
   151     3     4    2
   152     3     2    1
   153   122   123    1
   154   193   195   ar
   155   193   192    1
   156   110   111    1
   157   110   112    1
   158   123   125   am
   159   201   200   ar
   160   195   198   ar
   161   139   137   ar
   162   132   131    1
   163   132   133    1
   164     2     5    1
   165     2     1    1
   166     9     7   ar
   167     9    10   ar
   168     7     6   ar
   169    10     8   ar
   170   131   127   am
   171   192   189    1
   172     6     5    1
   173     6     8   ar
   174   188   189    1
   175   125   126    1
   176   127   126    1
   177   127   128    2
   178   200   198   ar
   179   126   129    1
   180   189   190    1
   181   134   133    2
   182   133   142   am
   183   191   190    2
   184   190   202   am
   185   142   143    1
   186   153   152    1
   187   129   130    1
   188   152   151   ar
   189   152   150   ar
   190   151   149   ar
   191   150   148   ar
   192   202   203    1
   193   143   144    1
   194   143   146    1
   195   149   147   ar
   196   148   147   ar
   197   147   146    1
   198   144   145    2
   199   205   204    2
   200   203   204    1
   201   203   206    1
   202   204   210   am
   203   206   207    1
   204   207   209    1
   205   207   208    1
   206   210   211    1
   207   211   212    1
   208   211   214    1
   209   213   212    2
   210   214   215    1
