@<TRIPOS>MOLECULE
tmp/1m6kA00.pdb
 94 88 0 0 0
SMALL
GASTEIGER

@<TRIPOS>ATOM
      1  N         39.3270   44.8440   73.4360 N.3    46  SER46      -0.1217
      2  CA        38.7330   44.6570   72.1150 C.3    46  SER46       0.1889
      3  C         39.2440   45.5280   70.9680 C.2    46  SER46       0.2288
      4  O         38.8960   45.2750   69.8110 O.2    46  SER46      -0.2866
      5  CB        37.2030   44.7210   72.1990 C.3    46  SER46       0.2089
      6  OG        36.7060   43.6100   72.9380 O.3    46  SER46      -0.2183
      7  N         27.2990   37.0290   77.4640 N.3    76  MET76      -0.1245
      8  CA        26.5620   38.2110   77.0110 C.3    76  MET76       0.1570
      9  C         25.5760   37.6760   75.9790 C.2    76  MET76       0.2261
     10  O         25.9750   36.9690   75.0550 O.2    76  MET76      -0.2867
     11  CB        27.4930   39.2230   76.3350 C.3    76  MET76       0.0387
     12  CG        28.5830   39.7870   77.2390 C.3    76  MET76       0.0595
     13  SD        27.9540   40.9030   78.5130 S.3    76  MET76      -0.1393
     14  CE        28.1020   39.8940   79.9750 C.3    76  MET76       0.0692
     15  N         26.1930   37.7150   72.1920 N.3    79  TRP79      -0.1241
     16  CA        27.2330   36.8120   71.7030 C.3    79  TRP79       0.1605
     17  C         26.6570   35.4300   71.3960 C.2    79  TRP79       0.2264
     18  O         27.2820   34.6330   70.6930 O.2    79  TRP79      -0.2867
     19  CB        28.3540   36.6420   72.7360 C.3    79  TRP79       0.0550
     20  CG        29.2000   37.8580   72.9800 C.ar   79  TRP79       0.0003
     21  CD1       29.2830   38.9800   72.2030 C.ar   79  TRP79       0.0946
     22  CD2       30.1670   38.0230   74.0270 C.ar   79  TRP79       0.0152
     23  NE1       30.2460   39.8270   72.6990 N.ar   79  TRP79      -0.2442
     24  CE2       30.8050   39.2640   73.8160 C.ar   79  TRP79       0.0810
     25  CE3       30.5580   37.2370   75.1220 C.ar   79  TRP79       0.0012
     26  CZ2       31.8170   39.7430   74.6600 C.ar   79  TRP79       0.0191
     27  CZ3       31.5660   37.7120   75.9640 C.ar   79  TRP79       0.0001
     28  CH2       32.1830   38.9550   75.7240 C.ar   79  TRP79       0.0015
     29  N         29.8150   44.1400   68.0490 N.3    91  PHE91      -0.1227
     30  CA        29.4600   43.6300   69.3680 C.3    91  PHE91       0.1736
     31  C         30.6280   43.0280   70.1500 C.2    91  PHE91       0.2596
     32  O         30.4260   42.3570   71.1640 O.2    91  PHE91      -0.2718
     33  CB        28.3270   42.6060   69.2240 C.3    91  PHE91       0.0547
     34  CG        27.0990   43.1570   68.5440 C.ar   91  PHE91      -0.0202
     35  CD1       26.3650   44.1800   69.1360 C.ar   91  PHE91      -0.0042
     36  CD2       26.6840   42.6620   67.3120 C.ar   91  PHE91      -0.0042
     37  CE1       25.2290   44.7020   68.5110 C.ar   91  PHE91      -0.0003
     38  CE2       25.5490   43.1760   66.6760 C.ar   91  PHE91      -0.0003
     39  CZ        24.8200   44.1990   67.2780 C.ar   91  PHE91      -0.0000
     40  N         31.8500   43.2760   69.6850 N.am   92  SER92      -0.1952
     41  CA        33.0510   42.7700   70.3560 C.3    92  SER92       0.1924
     42  C         32.9260   41.3000   70.7250 C.2    92  SER92       0.2314
     43  O         33.1250   40.9260   71.8760 O.2    92  SER92      -0.2863
     44  CB        33.3240   43.5800   71.6270 C.3    92  SER92       0.2116
     45  OG        33.5380   44.9460   71.3250 O.3    92  SER92      -0.2180
     46  N         34.1720   38.1700   71.3990 N.3    94  VAL94      -0.1245
     47  CA        35.4290   37.5190   71.7380 C.3    94  VAL94       0.1561
     48  C         35.5830   36.1030   71.1920 C.2    94  VAL94       0.2260
     49  O         36.6640   35.7390   70.7270 O.2    94  VAL94      -0.2867
     50  CB        35.6340   37.4960   73.2740 C.3    94  VAL94       0.0252
     51  CG1       36.8990   36.7230   73.6250 C.3    94  VAL94       0.0019
     52  CG2       35.7270   38.9280   73.8060 C.3    94  VAL94       0.0019
     53  N         43.2750   40.4890   76.2830 N.3   137  LEU137     -0.1245
     54  CA        42.2330   40.8590   77.2340 C.3   137  LEU137      0.1561
     55  C         42.7740   40.9820   78.6550 C.2   137  LEU137      0.2260
     56  O         42.8440   39.9980   79.3970 O.2   137  LEU137     -0.2867
     57  CB        41.1030   39.8230   77.1700 C.3   137  LEU137      0.0270
     58  CG        40.4580   39.6710   75.7870 C.3   137  LEU137      0.0019
     59  CD1       39.6110   38.4090   75.7420 C.3   137  LEU137      0.0001
     60  CD2       39.6220   40.9080   75.4720 C.3   137  LEU137      0.0001
     61  N         35.6390   50.0480   70.0860 N.3   189  THR189     -0.1203
     62  CA        35.7200   50.1760   71.5360 C.3   189  THR189      0.1994
     63  C         36.5370   49.0360   72.1450 C.2   189  THR189      0.2618
     64  O         36.7570   47.9960   71.5100 O.2   189  THR189     -0.2717
     65  CB        34.3260   50.1110   72.1860 C.3   189  THR189      0.1784
     66  OG1       33.6700   48.9050   71.7730 O.3   189  THR189     -0.2211
     67  CG2       33.4900   51.3200   71.7980 C.3   189  THR189      0.0376
     68  N         36.9800   49.2450   73.3800 N.am  190  GLY190     -0.1942
     69  CA        37.7180   48.2250   74.1060 C.3   190  GLY190      0.2014
     70  C         37.5770   48.5250   75.5900 C.2   190  GLY190      0.2639
     71  O         37.6720   49.6840   75.9790 O.2   190  GLY190     -0.2714
     72  N         37.3530   47.5090   76.4220 N.am  191  ALA191     -0.1963
     73  CA        37.2080   47.7480   77.8560 C.3   191  ALA191      0.1728
     74  C         37.5090   46.5060   78.6730 C.2   191  ALA191      0.2616
     75  O         37.3860   45.3850   78.1810 O.2   191  ALA191     -0.2715
     76  CB        35.7860   48.2280   78.1670 C.3   191  ALA191      0.0334
     77  N         37.8940   46.7180   79.9270 N.am  192  GLY192     -0.1955
     78  CA        38.1750   45.6000   80.8090 C.3   192  GLY192      0.1869
     79  C         38.5910   46.0680   82.1880 C.2   192  GLY192      0.2309
     80  O         38.9070   47.2400   82.3790 O.2   192  GLY192     -0.2863
     81  N         30.9510   47.6240   83.8100 N.3   230  LEU230     -0.1245
     82  CA        31.9580   48.0240   82.8270 C.3   230  LEU230      0.1561
     83  C         31.4290   49.0710   81.8450 C.2   230  LEU230      0.2260
     84  O         30.7870   48.7350   80.8480 O.2   230  LEU230     -0.2867
     85  CB        32.4590   46.7880   82.0720 C.3   230  LEU230      0.0270
     86  CG        33.7350   46.9700   81.2470 C.3   230  LEU230      0.0019
     87  CD1       34.8930   47.3680   82.1580 C.3   230  LEU230      0.0001
     88  CD2       34.0530   45.6760   80.5150 C.3   230  LEU230      0.0001
     89  N         34.4560   52.0500   78.2280 N.3   233  SER233     -0.1217
     90  CA        34.4840   52.3290   76.7930 C.3   233  SER233      0.1889
     91  C         33.2640   53.1330   76.3650 C.2   233  SER233      0.2288
     92  O         33.3230   53.8630   75.3820 O.2   233  SER233     -0.2866
     93  CB        34.5890   51.0370   75.9630 C.3   233  SER233      0.2089
     94  OG        33.4320   50.2310   76.0740 O.3   233  SER233     -0.2183
@<TRIPOS>BOND
     1    38    39   ar
     2    38    36   ar
     3    39    37   ar
     4    36    34   ar
     5    29    30    1
     6    37    35   ar
     7    34    35   ar
     8    34    33    1
     9    33    30    1
    10    30    31    1
    11    40    31   am
    12    40    41    1
    13     4     3    2
    14    61    62    1
    15    31    32    2
    16    41    42    1
    17    41    44    1
    18    18    17    2
    19    42    43    2
    20    49    48    2
    21     3     2    1
    22    48    47    1
    23    45    44    1
    24    17    16    1
    25    46    47    1
    26    64    63    2
    27    62    63    1
    28    62    65    1
    29    16    15    1
    30    16    19    1
    31    47    50    1
    32    66    65    1
    33    67    65    1
    34     2     5    1
    35     2     1    1
    36    63    68   am
    37     5     6    1
    38    21    23   ar
    39    21    20   ar
    40    23    24   ar
    41    19    20    1
    42    20    22   ar
    43    50    51    1
    44    50    52    1
    45    68    69    1
    46    24    22   ar
    47    24    26   ar
    48    22    25   ar
    49    69    70    1
    50    26    28   ar
    51    10     9    2
    52    25    27   ar
    53    92    91    2
    54    60    58    1
    55    70    71    2
    56    70    72   am
    57    28    27   ar
    58    59    58    1
    59    58    57    1
    60    93    94    1
    61    93    90    1
    62     9     8    1
    63    53    54    1
    64    11     8    1
    65    11    12    1
    66    91    90    1
    67    72    73    1
    68    90    89    1
    69     8     7    1
    70    57    54    1
    71    54    55    1
    72    12    13    1
    73    73    76    1
    74    73    74    1
    75    75    74    2
    76    13    14    1
    77    55    56    2
    78    74    77   am
    79    77    78    1
    80    88    86    1
    81    78    79    1
    82    84    83    2
    83    86    85    1
    84    86    87    1
    85    83    82    1
    86    85    82    1
    87    79    80    2
    88    82    81    1
