@<TRIPOS>MOLECULE
tmp/1m6pB00.pdb
 130 125 0 0 0
SMALL
GASTEIGER

@<TRIPOS>ATOM
      1  N          7.9060   10.9240   27.4870 N.3    37  TYR37      -0.1241
      2  CA         7.9070   12.2850   26.9580 C.3    37  TYR37       0.1605
      3  C          7.7370   12.4370   25.4520 C.2    37  TYR37       0.2264
      4  O          8.1990   11.6130   24.6710 O.2    37  TYR37      -0.2867
      5  CB         9.2040   12.9940   27.3440 C.3    37  TYR37       0.0534
      6  CG         9.5150   13.0250   28.8200 C.ar   37  TYR37      -0.0201
      7  CD1        8.6960   13.7080   29.7180 C.ar   37  TYR37      -0.0009
      8  CD2       10.6610   12.4090   29.3140 C.ar   37  TYR37      -0.0009
      9  CE1        9.0190   13.7810   31.0680 C.ar   37  TYR37       0.0417
     10  CE2       10.9910   12.4770   30.6560 C.ar   37  TYR37       0.0417
     11  CZ        10.1700   13.1610   31.5260 C.ar   37  TYR37       0.1957
     12  OH        10.5230   13.2260   32.8540 O.3    37  TYR37      -0.2866
     13  N          8.5460   15.3620   22.6380 N.3    39  TYR39      -0.1241
     14  CA         9.2010   16.6360   22.3840 C.3    39  TYR39       0.1605
     15  C          8.7360   17.2300   21.0600 C.2    39  TYR39       0.2264
     16  O          8.7220   16.5400   20.0390 O.2    39  TYR39      -0.2867
     17  CB        10.7190   16.4480   22.3740 C.3    39  TYR39       0.0534
     18  CG        11.3130   16.1390   23.7340 C.ar   39  TYR39      -0.0201
     19  CD1       11.6870   17.1670   24.5990 C.ar   39  TYR39      -0.0009
     20  CD2       11.5250   14.8240   24.1460 C.ar   39  TYR39      -0.0009
     21  CE1       12.2650   16.8950   25.8420 C.ar   39  TYR39       0.0417
     22  CE2       12.1000   14.5430   25.3850 C.ar   39  TYR39       0.0417
     23  CZ        12.4670   15.5900   26.2230 C.ar   39  TYR39       0.1957
     24  OH        13.0360   15.3280   27.4410 O.3    39  TYR39      -0.2866
     25  N          8.2970   20.0440   26.1070 N.3    58  GLN58      -0.1245
     26  CA         8.3610   18.6590   26.5150 C.3    58  GLN58       0.1566
     27  C          6.9890   18.3570   27.1150 C.2    58  GLN58       0.2260
     28  O          6.5840   18.9650   28.1100 O.2    58  GLN58      -0.2867
     29  CB         9.4520   18.4870   27.5610 C.3    58  GLN58       0.0367
     30  CG         9.5050   17.1130   28.1660 C.3    58  GLN58       0.0905
     31  CD        10.2610   17.1130   29.4640 C.2    58  GLN58       0.2608
     32  OE1       11.2930   16.4570   29.6040 O.2    58  GLN58      -0.2717
     33  NE2        9.7460   17.8450   30.4310 N.am   58  GLN58      -0.0878
     34  N          4.4050   15.8720   28.9340 N.3    60  GLN60      -0.1245
     35  CA         4.3100   14.7280   29.8290 C.3    60  GLN60       0.1566
     36  C          3.1390   13.8770   29.3360 C.2    60  GLN60       0.2260
     37  O          1.9810   14.2330   29.5440 O.2    60  GLN60      -0.2867
     38  CB         4.0580   15.2320   31.2570 C.3    60  GLN60       0.0367
     39  CG         3.8030   14.1520   32.2870 C.3    60  GLN60       0.0905
     40  CD         4.9450   13.1800   32.3910 C.2    60  GLN60       0.2608
     41  OE1        5.8770   13.3840   33.1670 O.2    60  GLN60      -0.2717
     42  NE2        4.8880   12.1140   31.6010 N.am   60  GLN60      -0.0878
     43  N          6.1270   21.4080   29.4780 N.3    67  THR67      -0.1218
     44  CA         7.2730   22.1220   30.0490 C.3    67  THR67       0.1862
     45  C          8.0700   22.7640   28.9200 C.2    67  THR67       0.2287
     46  O          8.4630   22.0850   27.9770 O.2    67  THR67      -0.2866
     47  CB         8.2190   21.1660   30.8190 C.3    67  THR67       0.1770
     48  OG1        7.5000   20.4990   31.8700 O.3    67  THR67      -0.2211
     49  CG2        9.3840   21.9330   31.4160 C.3    67  THR67       0.0375
     50  N         14.3160   24.5880   36.5610 N.3    94  TYR94      -0.1227
     51  CA        14.3440   23.3100   37.2380 C.3    94  TYR94       0.1736
     52  C         13.9160   23.6760   38.6600 C.2    94  TYR94       0.2595
     53  O         14.0930   24.8160   39.0970 O.2    94  TYR94      -0.2718
     54  CB        15.7630   22.7450   37.2780 C.3    94  TYR94       0.0548
     55  CG        16.2260   22.0500   36.0150 C.ar   94  TYR94      -0.0200
     56  CD1       15.9870   20.6880   35.8180 C.ar   94  TYR94      -0.0009
     57  CD2       16.9530   22.7370   35.0410 C.ar   94  TYR94      -0.0009
     58  CE1       16.4630   20.0300   34.6860 C.ar   94  TYR94       0.0417
     59  CE2       17.4350   22.0860   33.9060 C.ar   94  TYR94       0.0417
     60  CZ        17.1900   20.7350   33.7360 C.ar   94  TYR94       0.1957
     61  OH        17.6890   20.0860   32.6240 O.3    94  TYR94      -0.2866
     62  N         13.3400   22.7240   39.3790 N.am   95  ASP95      -0.1960
     63  CA        12.9080   22.9910   40.7460 C.3    95  ASP95       0.1840
     64  C         13.9680   22.5370   41.7470 C.2    95  ASP95       0.2622
     65  O         14.1090   23.1150   42.8220 O.2    95  ASP95      -0.2715
     66  CB        11.5670   22.3000   41.0320 C.3    95  ASP95       0.1450
     67  CG        10.4010   22.9330   40.2780 C.2    95  ASP95       0.3671
     68  OD1       10.3740   24.1750   40.1330 O.co2  95  ASP95      -0.2456
     69  OD2        9.4990   22.1850   39.8410 O.co2  95  ASP95      -0.2456
     70  N         14.7700   21.5610   41.3380 N.am   96  ASN96      -0.1958
     71  CA        15.8060   20.9920   42.1900 C.3    96  ASN96       0.1819
     72  C         17.1950   21.0110   41.5520 C.2    96  ASN96       0.2621
     73  O         18.1640   21.4740   42.1540 O.2    96  ASN96      -0.2715
     74  CB        15.4520   19.5400   42.5470 C.3    96  ASN96       0.1195
     75  CG        14.1590   19.4220   43.3450 C.2    96  ASN96       0.2630
     76  OD1       14.0440   19.9540   44.4470 O.2    96  ASN96      -0.2716
     77  ND2       13.1930   18.6850   42.8050 N.am   96  ASN96      -0.0877
     78  N         17.2770   20.5070   40.3250 N.am   97  HIS97      -0.1973
     79  CA        18.5380   20.4100   39.5880 C.3    97  HIS97       0.1656
     80  C         19.0880   21.7250   39.0430 C.2    97  HIS97       0.2291
     81  O         18.3720   22.7270   38.9360 O.2    97  HIS97      -0.2864
     82  CB        18.3780   19.4540   38.3980 C.3    97  HIS97       0.0771
     83  CG        17.8810   18.0940   38.7660 C.ar   97  HIS97       0.0820
     84  ND1       16.5430   17.7570   38.7270 N.ar   97  HIS97      -0.2267
     85  CD2       18.5380   16.9780   39.1530 C.ar   97  HIS97       0.1154
     86  CE1       16.4020   16.4880   39.0760 C.ar   97  HIS97       0.1986
     87  NE2       17.5970   15.9940   39.3380 N.ar   97  HIS97      -0.2212
     88  N         15.6540   25.9940   31.8130 N.3   103  ARG103     -0.1245
     89  CA        16.0310   24.9030   30.9220 C.3   103  ARG103      0.1563
     90  C         16.5610   25.4920   29.6120 C.2   103  ARG103      0.2260
     91  O         16.3990   26.6870   29.3420 O.2   103  ARG103     -0.2867
     92  CB        14.8500   23.9620   30.6740 C.3   103  ARG103      0.0307
     93  CG        14.5130   23.0730   31.8690 C.3   103  ARG103      0.0489
     94  CD        13.2940   22.2240   31.5920 C.3   103  ARG103      0.2205
     95  NE        12.3940   22.1880   32.7390 N.pl3 103  ARG103     -0.0865
     96  CZ        12.3500   21.2010   33.6250 C.cat 103  ARG103      0.5346
     97  NH1       13.1600   20.1630   33.5040 N.pl3 103  ARG103      0.1354
     98  NH2       11.4840   21.2410   34.6220 N.pl3 103  ARG103      0.1354
     99  N         19.6150   14.5070   28.1320 N.3   125  GLU125     -0.1245
    100  CA        19.4530   15.6480   29.0150 C.3   125  GLU125      0.1567
    101  C         20.5840   15.5940   30.0320 C.2   125  GLU125      0.2260
    102  O         20.9170   14.5310   30.5620 O.2   125  GLU125     -0.2867
    103  CB        18.1190   15.6180   29.7550 C.3   125  GLU125      0.0388
    104  CG        17.9670   16.7870   30.7320 C.3   125  GLU125      0.1160
    105  CD        16.7560   16.6670   31.6450 C.2   125  GLU125      0.3649
    106  OE1       16.0430   15.6480   31.5770 O.co2 125  GLU125     -0.2457
    107  OE2       16.5140   17.6030   32.4310 O.co2 125  GLU125     -0.2457
    108  N         21.3570   17.1430   33.3950 N.3   127  ARG127     -0.1245
    109  CA        20.8030   17.8490   34.5500 C.3   127  ARG127      0.1563
    110  C         21.6070   17.4680   35.7940 C.2   127  ARG127      0.2260
    111  O         21.1090   17.5610   36.9230 O.2   127  ARG127     -0.2867
    112  CB        19.3430   17.4430   34.7600 C.3   127  ARG127      0.0307
    113  CG        19.1760   15.9520   35.0130 C.3   127  ARG127      0.0489
    114  CD        17.7360   15.5660   35.2610 C.3   127  ARG127      0.2205
    115  NE        17.5970   14.1310   35.5010 N.pl3 127  ARG127     -0.0865
    116  CZ        16.4380   13.5160   35.7250 C.cat 127  ARG127      0.5346
    117  NH1       15.3030   14.2030   35.7400 N.pl3 127  ARG127      0.1354
    118  NH2       16.4180   12.2110   35.9530 N.pl3 127  ARG127      0.1354
    119  N         19.2980   20.1360   27.2300 N.3   135  TYR135     -0.1241
    120  CA        18.6630   18.9970   26.5820 C.3   135  TYR135      0.1605
    121  C         19.3170   19.0390   25.2060 C.2   135  TYR135      0.2264
    122  O         19.4620   20.1180   24.6300 O.2   135  TYR135     -0.2867
    123  CB        17.1600   19.2160   26.4400 C.3   135  TYR135      0.0534
    124  CG        16.3750   19.1120   27.7280 C.ar  135  TYR135     -0.0201
    125  CD1       16.3920   20.1440   28.6620 C.ar  135  TYR135     -0.0009
    126  CD2       15.5710   18.0050   27.9870 C.ar  135  TYR135     -0.0009
    127  CE1       15.6150   20.0820   29.8140 C.ar  135  TYR135      0.0417
    128  CE2       14.7900   17.9340   29.1330 C.ar  135  TYR135      0.0417
    129  CZ        14.8210   18.9750   30.0400 C.ar  135  TYR135      0.1957
    130  OH        14.0400   18.9270   31.1630 O.3   135  TYR135     -0.2866
@<TRIPOS>BOND
     1    16    15    2
     2    15    14    1
     3    17    14    1
     4    17    18    1
     5    14    13    1
     6    18    20   ar
     7    18    19   ar
     8    20    22   ar
     9    19    21   ar
    10   122   121    2
    11     4     3    2
    12   121   120    1
    13    22    23   ar
    14     3     2    1
    15    21    23   ar
    16    25    26    1
    17    23    24    1
    18   123   120    1
    19   123   124    1
    20    26    27    1
    21    26    29    1
    22   120   119    1
    23     2     5    1
    24     2     1    1
    25    27    28    2
    26     5     6    1
    27    29    30    1
    28   124   126   ar
    29   124   125   ar
    30    46    45    2
    31   126   128   ar
    32    99   100    1
    33    30    31    1
    34   125   127   ar
    35     6     8   ar
    36     6     7   ar
    37    45    44    1
    38    34    35    1
    39   100   103    1
    40   100   101    1
    41   128   129   ar
    42     8    10   ar
    43    36    37    2
    44    36    35    1
    45    91    90    2
    46    31    32    2
    47    31    33   am
    48    43    44    1
    49    90    89    1
    50     7     9   ar
    51   103   104    1
    52   127   129   ar
    53    35    38    1
    54   101   102    2
    55   129   130    1
    56    44    47    1
    57    10    11   ar
    58    92    89    1
    59    92    93    1
    60   104   105    1
    61    47    49    1
    62    47    48    1
    63    89    88    1
    64     9    11   ar
    65    38    39    1
    66    11    12    1
    67   106   105   ar
    68    94    93    1
    69    94    95    1
    70    42    40   am
    71   105   107   ar
    72    39    40    1
    73    40    41    2
    74    61    60    1
    75    95    96    2
    76   108   109    1
    77    97    96    1
    78    96    98    1
    79    60    59   ar
    80    60    58   ar
    81    59    57   ar
    82   109   112    1
    83   109   110    1
    84    58    56   ar
    85   112   113    1
    86   113   114    1
    87    57    55   ar
    88   114   115    1
    89   115   116    2
    90   116   117    1
    91   116   118    1
    92   110   111    2
    93    56    55   ar
    94    55    54    1
    95    50    51    1
    96    51    54    1
    97    51    52    1
    98    82    83    1
    99    82    79    1
   100    52    53    2
   101    52    62   am
   102    84    83   ar
   103    84    86   ar
   104    83    85   ar
   105    81    80    2
   106    80    79    1
   107    86    87   ar
   108    85    87   ar
   109    62    63    1
   110    79    78    1
   111    69    67   ar
   112    68    67   ar
   113    67    66    1
   114    78    72   am
   115    63    66    1
   116    63    64    1
   117    70    64   am
   118    70    71    1
   119    72    73    2
   120    72    71    1
   121    64    65    2
   122    71    74    1
   123    74    75    1
   124    77    75   am
   125    75    76    2
