@<TRIPOS>MOLECULE
tmp/1m6wA00.pdb
 130 123 0 0 0
SMALL
GASTEIGER

@<TRIPOS>ATOM
      1  N         58.7200   13.8720   -5.9630 N.3    44  CYS44      -0.1235
      2  CA        58.6480   14.0660   -4.5210 C.3    44  CYS44       0.1677
      3  C         57.3080   13.5010   -4.0390 C.2    44  CYS44       0.2270
      4  O         56.3360   13.4760   -4.8020 O.2    44  CYS44      -0.2867
      5  CB        58.7440   15.5600   -4.2030 C.3    44  CYS44       0.0956
      6  SG        58.3230   16.0090   -2.5140 S.3    44  CYS44      -0.0801
      7  N         55.1190   14.7350   -2.4460 N.3    46  THR46      -0.1218
      8  CA        54.0760   15.7340   -2.6310 C.3    46  THR46       0.1862
      9  C         53.4330   15.6270   -4.0120 C.2    46  THR46       0.2287
     10  O         52.2210   15.7920   -4.1480 O.2    46  THR46      -0.2866
     11  CB        54.6350   17.1460   -2.4420 C.3    46  THR46       0.1770
     12  OG1       55.1480   17.2670   -1.1120 O.3    46  THR46      -0.2211
     13  CG2       53.5440   18.1830   -2.6530 C.3    46  THR46       0.0375
     14  N         58.0300   19.4850   -9.0340 N.3    66  HIS66      -0.1241
     15  CA        58.6090   20.6950   -8.4630 C.3    66  HIS66       0.1621
     16  C         60.0790   20.5400   -8.0730 C.2    66  HIS66       0.2264
     17  O         60.6460   21.3970   -7.3980 O.2    66  HIS66      -0.2867
     18  CB        57.7840   21.1890   -7.2670 C.3    66  HIS66       0.0745
     19  CG        57.6350   20.1840   -6.1710 C.ar   66  HIS66       0.0817
     20  ND1       56.9640   18.9920   -6.3420 N.ar   66  HIS66      -0.2268
     21  CD2       58.0590   20.2000   -4.8850 C.ar   66  HIS66       0.1154
     22  CE1       56.9800   18.3170   -5.2060 C.ar   66  HIS66       0.1986
     23  NE2       57.6380   19.0280   -4.3070 N.ar   66  HIS66      -0.2212
     24  N         59.4140   26.5690   -5.9110 N.3    92  TYR92      -0.1227
     25  CA        57.9990   26.6370   -5.5440 C.3    92  TYR92       0.1736
     26  C         57.7880   27.6660   -4.4370 C.2    92  TYR92       0.2595
     27  O         56.6610   28.0520   -4.1300 O.2    92  TYR92      -0.2718
     28  CB        57.4430   25.2730   -5.1250 C.3    92  TYR92       0.0548
     29  CG        58.0880   24.6240   -3.9270 C.ar   92  TYR92      -0.0200
     30  CD1       59.1680   23.7520   -4.0770 C.ar   92  TYR92      -0.0009
     31  CD2       57.5680   24.8120   -2.6500 C.ar   92  TYR92      -0.0009
     32  CE1       59.7050   23.0740   -2.9870 C.ar   92  TYR92       0.0417
     33  CE2       58.0980   24.1430   -1.5540 C.ar   92  TYR92       0.0417
     34  CZ        59.1630   23.2730   -1.7310 C.ar   92  TYR92       0.1957
     35  OH        59.6660   22.5910   -0.6540 O.3    92  TYR92      -0.2866
     36  N         58.8920   28.0990   -3.8390 N.am   93  ILE93      -0.1980
     37  CA        58.8750   29.1280   -2.8070 C.3    93  ILE93       0.1595
     38  C         59.6660   30.2510   -3.4630 C.2    93  ILE93       0.2287
     39  O         60.8900   30.1840   -3.5520 O.2    93  ILE93      -0.2864
     40  CB        59.6080   28.6890   -1.5220 C.3    93  ILE93       0.0276
     41  CG1       58.8800   27.5150   -0.8640 C.3    93  ILE93       0.0022
     42  CG2       59.6950   29.8580   -0.5560 C.3    93  ILE93       0.0022
     43  CD1       57.4670   27.8310   -0.4060 C.3    93  ILE93       0.0001
     44  N         58.9270   32.6770    3.3640 N.3   109  LEU109     -0.1231
     45  CA        57.6350   32.5240    2.7100 C.3   109  LEU109      0.1693
     46  C         57.1080   33.7350    1.9470 C.2   109  LEU109      0.2592
     47  O         56.1380   34.3660    2.3620 O.2   109  LEU109     -0.2718
     48  CB        56.5970   32.0740    3.7340 C.3   109  LEU109      0.0284
     49  CG        56.9340   30.7450    4.4110 C.3   109  LEU109      0.0019
     50  CD1       55.8560   30.4030    5.4310 C.3   109  LEU109      0.0001
     51  CD2       57.0540   29.6500    3.3630 C.3   109  LEU109      0.0001
     52  N         57.7470   34.0450    0.8220 N.am  110  CYS110     -0.1956
     53  CA        57.3270   35.1590   -0.0230 C.3   110  CYS110      0.1843
     54  C         55.8720   34.9300   -0.4190 C.2   110  CYS110      0.2625
     55  O         55.5140   33.8390   -0.8620 O.2   110  CYS110     -0.2714
     56  CB        58.2030   35.2200   -1.2760 C.3   110  CYS110      0.0997
     57  SG        57.7280   36.4910   -2.4770 S.3   110  CYS110     -0.0797
     58  N         55.0400   35.9590   -0.2630 N.am  111  GLN111     -0.1977
     59  CA        53.6160   35.8620   -0.5860 C.3   111  GLN111      0.1601
     60  C         53.2170   36.5420   -1.8980 C.2   111  GLN111      0.2287
     61  O         52.0660   36.4570   -2.3160 O.2   111  GLN111     -0.2864
     62  CB        52.7850   36.4750    0.5470 C.3   111  GLN111      0.0394
     63  CG        53.0040   35.8220    1.8900 C.3   111  GLN111      0.0908
     64  CD        52.6270   34.3620    1.8720 C.2   111  GLN111      0.2608
     65  OE1       51.4550   34.0100    1.7210 O.2   111  GLN111     -0.2717
     66  NE2       53.6220   33.4990    2.0150 N.am  111  GLN111     -0.0878
     67  N         51.4830   33.8980   -4.1490 N.3   114  ARG114     -0.1245
     68  CA        50.8400   32.7550   -3.5020 C.3   114  ARG114      0.1563
     69  C         49.4700   32.4110   -4.0910 C.2   114  ARG114      0.2260
     70  O         49.2260   31.2760   -4.5030 O.2   114  ARG114     -0.2867
     71  CB        50.6780   33.0350   -1.9980 C.3   114  ARG114      0.0307
     72  CG        51.3340   32.0160   -1.0770 C.3   114  ARG114      0.0489
     73  CD        50.8170   30.6180   -1.3510 C.3   114  ARG114      0.2205
     74  NE        51.9140   29.6760   -1.5530 N.pl3 114  ARG114     -0.0865
     75  CZ        51.7900   28.5050   -2.1710 C.cat 114  ARG114      0.5346
     76  NH1       50.6100   28.1270   -2.6510 N.pl3 114  ARG114      0.1354
     77  NH2       52.8470   27.7170   -2.3160 N.pl3 114  ARG114      0.1354
     78  N         52.5190   24.1680   -8.2040 N.3   140  MET140     -0.1245
     79  CA        53.5080   24.7050   -7.2780 C.3   140  MET140      0.1570
     80  C         54.4160   25.7380   -7.9520 C.2   140  MET140      0.2261
     81  O         55.5750   25.9170   -7.5690 O.2   140  MET140     -0.2867
     82  CB        54.3300   23.5510   -6.6890 C.3   140  MET140      0.0387
     83  CG        53.4850   22.5730   -5.8650 C.3   140  MET140      0.0595
     84  SD        54.4040   21.2250   -5.0660 S.3   140  MET140     -0.1393
     85  CE        55.3730   22.1390   -3.8780 C.3   140  MET140      0.0692
     86  N         63.7130   20.6070   -3.8070 N.3   173  CYS173     -0.1235
     87  CA        62.8180   20.3510   -2.6850 C.3   173  CYS173      0.1677
     88  C         63.3790   19.4720   -1.5670 C.2   173  CYS173      0.2270
     89  O         63.9510   19.9760   -0.6060 O.2   173  CYS173     -0.2867
     90  CB        61.5060   19.7420   -3.1800 C.3   173  CYS173      0.0956
     91  SG        60.2730   19.6490   -1.8710 S.3   173  CYS173     -0.0801
     92  N         57.4930   20.3350    6.5020 N.3   292  GLY292     -0.1210
     93  CA        56.4380   20.4200    5.5040 C.3   292  GLY292      0.1956
     94  C         56.6120   19.4890    4.3230 C.2   292  GLY292      0.2612
     95  O         57.5500   19.6400    3.5380 O.2   292  GLY292     -0.2717
     96  N         55.7010   18.5260    4.2020 N.am  293  VAL293     -0.1965
     97  CA        55.7290   17.5470    3.1170 C.3   293  VAL293      0.1727
     98  C         54.3070   17.2050    2.6410 C.2   293  VAL293      0.2616
     99  O         54.1110   16.7940    1.4940 O.2   293  VAL293     -0.2715
    100  CB        56.4670   16.2410    3.5580 C.3   293  VAL293      0.0290
    101  CG1       57.9340   16.5410    3.8530 C.3   293  VAL293      0.0023
    102  CG2       55.8020   15.6490    4.7940 C.3   293  VAL293      0.0023
    103  N         53.3260   17.3920    3.5270 N.am  294  ALA294     -0.1977
    104  CA        51.9130   17.1190    3.2360 C.3   294  ALA294      0.1597
    105  C         51.0320   18.3260    3.5720 C.2   294  ALA294      0.2287
    106  O         51.5150   19.4530    3.7100 O.2   294  ALA294     -0.2864
    107  CB        51.4340   15.9040    4.0430 C.3   294  ALA294      0.0319
    108  N         58.5170   23.9710    9.2410 N.3   316  THR316     -0.1203
    109  CA        59.3440   24.5720    8.2080 C.3   316  THR316      0.1994
    110  C         58.8430   24.2700    6.8060 C.2   316  THR316      0.2618
    111  O         58.2050   23.2460    6.5670 O.2   316  THR316     -0.2717
    112  CB        60.8100   24.0990    8.3100 C.3   316  THR316      0.1784
    113  OG1       61.6050   24.8200    7.3630 O.3   316  THR316     -0.2211
    114  CG2       60.9140   22.6100    8.0130 C.3   316  THR316      0.0376
    115  N         59.1370   25.1860    5.8870 N.am  317  ALA317     -0.1965
    116  CA        58.7550   25.0500    4.4900 C.3   317  ALA317      0.1728
    117  C         60.0160   25.2970    3.6730 C.2   317  ALA317      0.2616
    118  O         60.6700   26.3350    3.8140 O.2   317  ALA317     -0.2715
    119  CB        57.6680   26.0760    4.1290 C.3   317  ALA317      0.0334
    120  N         60.3520   24.3340    2.8230 N.am  318  PHE318     -0.1974
    121  CA        61.5420   24.4120    1.9920 C.3   318  PHE318      0.1639
    122  C         62.7450   24.7650    2.8630 C.2   318  PHE318      0.2290
    123  O         63.6080   25.5590    2.4740 O.2   318  PHE318     -0.2864
    124  CB        61.3590   25.4440    0.8740 C.3   318  PHE318      0.0560
    125  CG        62.4240   25.3790   -0.1870 C.ar  318  PHE318     -0.0200
    126  CD1       62.6110   24.2180   -0.9320 C.ar  318  PHE318     -0.0042
    127  CD2       63.2430   26.4780   -0.4410 C.ar  318  PHE318     -0.0042
    128  CE1       63.5980   24.1480   -1.9220 C.ar  318  PHE318     -0.0003
    129  CE2       64.2370   26.4220   -1.4300 C.ar  318  PHE318     -0.0003
    130  CZ        64.4130   25.2530   -2.1710 C.ar  318  PHE318     -0.0000
@<TRIPOS>BOND
     1    14    15    1
     2    15    16    1
     3    15    18    1
     4    78    79    1
     5    16    17    2
     6    80    81    2
     7    80    79    1
     8    79    82    1
     9    18    19    1
    10    82    83    1
    11    20    19   ar
    12    20    22   ar
    13    19    21   ar
    14     1     2    1
    15    24    25    1
    16    83    84    1
    17    25    28    1
    18    25    26    1
    19    22    23   ar
    20    28    29    1
    21    84    85    1
    22    21    23   ar
    23     4     3    2
    24     2     5    1
    25     2     3    1
    26    70    69    2
    27    26    27    2
    28    26    36   am
    29     5     6    1
    30    67    68    1
    31    10     9    2
    32    69    68    1
    33    30    29   ar
    34    30    32   ar
    35     9     8    1
    36    29    31   ar
    37    36    37    1
    38    86    87    1
    39    39    38    2
    40    68    71    1
    41    38    37    1
    42    90    87    1
    43    90    91    1
    44    32    34   ar
    45    37    40    1
    46    87    88    1
    47    13    11    1
    48    76    75    1
    49    31    33   ar
    50     8     7    1
    51     8    11    1
    52    57    56    1
    53    11    12    1
    54    77    75    1
    55    61    60    2
    56   130   128   ar
    57   130   129   ar
    58    75    74    2
    59    71    72    1
    60   128   126   ar
    61    60    59    1
    62    34    33   ar
    63    34    35    1
    64    88    89    2
    65    74    73    1
    66    40    41    1
    67    40    42    1
    68   129   127   ar
    69    73    72    1
    70    56    53    1
    71   126   125   ar
    72    41    43    1
    73    55    54    2
    74    59    58    1
    75    59    62    1
    76   127   125   ar
    77    54    58   am
    78    54    53    1
    79   125   124    1
    80    53    52    1
    81    62    63    1
    82    52    46   am
    83   124   121    1
    84    99    98    2
    85    65    64    2
    86    64    63    1
    87    64    66   am
    88    46    47    2
    89    46    45    1
    90   121   120    1
    91   121   122    1
    92   123   122    2
    93    98    97    1
    94    98   103   am
    95    45    44    1
    96    45    48    1
    97   120   117   am
    98    97   100    1
    99    97    96    1
   100   104   103    1
   101   104   105    1
   102   104   107    1
   103    51    49    1
   104    95    94    2
   105   100   101    1
   106   100   102    1
   107   105   106    2
   108   117   118    2
   109   117   116    1
   110    48    49    1
   111   119   116    1
   112    96    94   am
   113    94    93    1
   114    49    50    1
   115   116   115    1
   116    93    92    1
   117   115   110   am
   118   111   110    2
   119   110   109    1
   120   113   112    1
   121   114   112    1
   122   109   112    1
   123   109   108    1
