@<TRIPOS>MOLECULE
tmp/1m6yA00.pdb
 205 196 0 0 0
SMALL
GASTEIGER

@<TRIPOS>ATOM
      1  N        -46.7140   -4.9060    4.4770 N.3     7  HIS7       -0.1241
      2  CA       -46.3150   -5.8720    3.4620 C.3     7  HIS7        0.1621
      3  C        -47.4770   -6.8300    3.2230 C.2     7  HIS7        0.2264
      4  O        -47.9140   -7.5430    4.1360 O.2     7  HIS7       -0.2867
      5  CB       -45.0840   -6.6610    3.9070 C.3     7  HIS7        0.0745
      6  CG       -44.6440   -7.6860    2.9070 C.ar    7  HIS7        0.0817
      7  ND1      -44.2080   -7.3480    1.6430 N.ar    7  HIS7       -0.2268
      8  CD2      -44.6290   -9.0410    2.9620 C.ar    7  HIS7        0.1154
      9  CE1      -43.9470   -8.4500    0.9610 C.ar    7  HIS7        0.1986
     10  NE2      -44.1950   -9.4910    1.7390 N.ar    7  HIS7       -0.2212
     11  N        -48.9530   -9.8880    0.5350 N.3     9  PRO9       -0.2116
     12  CA       -48.6500  -10.8230   -0.5580 C.3     9  PRO9        0.1372
     13  C        -49.5580  -10.5400   -1.7500 C.2     9  PRO9        0.2244
     14  O        -50.7650  -10.4410   -1.6010 O.2     9  PRO9       -0.2868
     15  CB       -48.9660  -12.2010    0.0370 C.3     9  PRO9        0.0268
     16  CG       -49.1460  -11.9670    1.5090 C.3     9  PRO9        0.0207
     17  CD       -49.6680  -10.5720    1.6280 C.3     9  PRO9        0.0892
     18  N        -41.2290  -22.4220   -2.1060 N.3    28  ASP28      -0.1225
     19  CA       -41.4950  -20.9960   -2.3190 C.3    28  ASP28       0.1805
     20  C        -40.1070  -20.4580   -2.7170 C.2    28  ASP28       0.2598
     21  O        -39.2220  -20.2790   -1.8720 O.2    28  ASP28      -0.2718
     22  CB       -41.9890  -20.3290   -1.0250 C.3    28  ASP28       0.1424
     23  CG       -42.4000  -18.8830   -1.2390 C.2    28  ASP28       0.3668
     24  OD1      -41.9580  -18.2790   -2.2480 O.co2  28  ASP28      -0.2456
     25  OD2      -43.1630  -18.3390   -0.4070 O.co2  28  ASP28      -0.2456
     26  N        -39.9190  -20.2590   -4.0200 N.am   29  CYS29      -0.1956
     27  CA       -38.6460  -19.8170   -4.5990 C.3    29  CYS29       0.1843
     28  C        -38.1960  -18.4020   -4.2790 C.2    29  CYS29       0.2626
     29  O        -37.0280  -18.0620   -4.5070 O.2    29  CYS29      -0.2714
     30  CB       -38.7090  -19.9170   -6.1330 C.3    29  CYS29       0.0997
     31  SG       -38.9560  -21.5720   -6.7460 S.3    29  CYS29      -0.0797
     32  N        -39.1230  -17.5890   -3.7900 N.am   30  THR30      -0.1936
     33  CA       -38.8760  -16.1770   -3.5110 C.3    30  THR30       0.2028
     34  C        -39.6630  -15.8850   -2.2430 C.2    30  THR30       0.2642
     35  O        -40.6060  -15.0780   -2.2400 O.2    30  THR30      -0.2714
     36  CB       -39.4560  -15.3360   -4.6760 C.3    30  THR30       0.1808
     37  OG1      -40.8040  -15.7610   -4.9300 O.3    30  THR30      -0.2208
     38  CG2      -38.6410  -15.5520   -5.9730 C.3    30  THR30       0.0379
     39  N        -39.2600  -16.5220   -1.1520 N.am   31  VAL31      -0.1963
     40  CA       -40.0490  -16.3960    0.0660 C.3    31  VAL31       0.1727
     41  C        -40.2110  -14.9890    0.6010 C.2    31  VAL31       0.2617
     42  O        -41.2510  -14.6640    1.1820 O.2    31  VAL31      -0.2715
     43  CB       -39.5370  -17.3870    1.1550 C.3    31  VAL31       0.0290
     44  CG1      -38.1790  -16.9470    1.6870 C.3    31  VAL31       0.0023
     45  CG2      -40.6090  -17.5080    2.2830 C.3    31  VAL31       0.0023
     46  N        -39.2020  -14.1480    0.3830 N.am   32  GLY32      -0.1940
     47  CA       -39.2960  -12.7660    0.8280 C.3    32  GLY32       0.2014
     48  C        -39.5580  -12.6650    2.3180 C.2    32  GLY32       0.2638
     49  O        -38.8670  -13.3060    3.0950 O.2    32  GLY32      -0.2714
     50  N        -40.5420  -11.8560    2.6950 N.am   33  GLU33      -0.1977
     51  CA       -40.9200  -11.6580    4.0870 C.3    33  GLU33       0.1602
     52  C        -41.8800  -12.7370    4.5780 C.2    33  GLU33       0.2287
     53  O        -42.3630  -12.6760    5.7090 O.2    33  GLU33      -0.2864
     54  CB       -41.5370  -10.2600    4.2550 C.3    33  GLU33       0.0415
     55  CG       -40.4880   -9.1770    3.9690 C.3    33  GLU33       0.1163
     56  CD       -41.0340   -7.7680    4.0180 C.2    33  GLU33       0.3649
     57  OE1      -41.7400   -7.4320    4.9990 O.co2  33  GLU33      -0.2457
     58  OE2      -40.7340   -6.9890    3.0800 O.co2  33  GLU33      -0.2457
     59  N        -44.9240  -13.6120    3.1650 N.3    35  GLY35      -0.1210
     60  CA       -46.3440  -13.3620    2.9480 C.3    35  GLY35       0.1956
     61  C        -47.1330  -14.5100    2.3290 C.2    35  GLY35       0.2611
     62  O        -48.1430  -14.9560    2.8890 O.2    35  GLY35      -0.2717
     63  N        -46.6970  -14.9990    1.1700 N.am   36  HIS36      -0.1975
     64  CA       -47.4040  -16.1060    0.5330 C.3    36  HIS36       0.1656
     65  C        -47.2750  -17.3900    1.3430 C.2    36  HIS36       0.2291
     66  O        -48.2340  -18.1430    1.4670 O.2    36  HIS36      -0.2864
     67  CB       -46.8560  -16.3930   -0.8680 C.3    36  HIS36       0.0771
     68  CG       -47.1820  -15.3430   -1.8810 C.ar   36  HIS36       0.0820
     69  ND1      -48.4680  -15.0840   -2.3020 N.ar   36  HIS36      -0.2267
     70  CD2      -46.3820  -14.4980   -2.5700 C.ar   36  HIS36       0.1154
     71  CE1      -48.4460  -14.1210   -3.2090 C.ar   36  HIS36       0.1986
     72  NE2      -47.1930  -13.7490   -3.3900 N.ar   36  HIS36      -0.2212
     73  N        -34.5060  -17.5240   -0.4330 N.3    53  ASP53      -0.1225
     74  CA       -34.3450  -16.1630   -0.9090 C.3    53  ASP53       0.1805
     75  C        -32.8510  -15.8900   -0.9340 C.2    53  ASP53       0.2598
     76  O        -32.0770  -16.6090   -0.2980 O.2    53  ASP53      -0.2718
     77  CB       -35.0530  -15.1770    0.0390 C.3    53  ASP53       0.1424
     78  CG       -35.4410  -13.8790   -0.6560 C.2    53  ASP53       0.3668
     79  OD1      -34.5430  -13.1080   -1.0470 O.co2  53  ASP53      -0.2456
     80  OD2      -36.6460  -13.6390   -0.8320 O.co2  53  ASP53      -0.2456
     81  N        -32.4220  -14.8710   -1.6760 N.am   54  VAL54      -0.1966
     82  CA       -31.0030  -14.5560   -1.6780 C.3    54  VAL54       0.1727
     83  C        -30.7250  -13.3950   -0.7180 C.2    54  VAL54       0.2616
     84  O        -29.5610  -13.0630   -0.4780 O.2    54  VAL54      -0.2715
     85  CB       -30.4890  -14.1440   -3.0970 C.3    54  VAL54       0.0290
     86  CG1      -30.5830  -15.3550   -4.0710 C.3    54  VAL54       0.0023
     87  CG2      -31.3040  -12.9620   -3.6130 C.3    54  VAL54       0.0023
     88  N        -31.7790  -12.7580   -0.1960 N.am   55  ASP55      -0.1971
     89  CA       -31.6190  -11.6130    0.7210 C.3    55  ASP55       0.1709
     90  C        -31.7180  -12.0660    2.1990 C.2    55  ASP55       0.2293
     91  O        -32.8110  -12.3090    2.7110 O.2    55  ASP55      -0.2864
     92  CB       -32.6920  -10.5530    0.4060 C.3    55  ASP55       0.1436
     93  CG       -32.5080   -9.2520    1.2060 C.2    55  ASP55       0.3671
     94  OD1      -31.6300   -9.1950    2.0990 O.co2  55  ASP55      -0.2456
     95  OD2      -33.2490   -8.2790    0.9290 O.co2  55  ASP55      -0.2456
     96  N        -34.3970  -10.2010    4.4520 N.3    58  VAL58      -0.1245
     97  CA       -35.8260  -10.4960    4.4270 C.3    58  VAL58       0.1561
     98  C        -36.0710  -11.8750    5.0350 C.2    58  VAL58       0.2260
     99  O        -37.1430  -12.1300    5.6040 O.2    58  VAL58      -0.2867
    100  CB       -36.4480  -10.4070    3.0040 C.3    58  VAL58       0.0252
    101  CG1      -36.3030   -8.9810    2.4770 C.3    58  VAL58       0.0019
    102  CG2      -35.8100  -11.4200    2.0610 C.3    58  VAL58       0.0019
    103  N        -30.4430  -19.1980   -0.5790 N.3    78  VAL78      -0.1231
    104  CA       -29.9070  -19.8080   -1.7840 C.3    78  VAL78       0.1692
    105  C        -30.7290  -19.3350   -2.9680 C.2    78  VAL78       0.2593
    106  O        -31.9300  -19.0710   -2.8400 O.2    78  VAL78      -0.2718
    107  CB       -29.9550  -21.3480   -1.6860 C.3    78  VAL78       0.0266
    108  CG1      -31.3920  -21.8090   -1.6350 C.3    78  VAL78       0.0020
    109  CG2      -29.2190  -21.9760   -2.8820 C.3    78  VAL78       0.0020
    110  N        -30.0760  -19.1910   -4.1160 N.am   79  SER79      -0.1938
    111  CA       -30.7930  -18.7670   -5.3260 C.3    79  SER79       0.2055
    112  C        -31.6830  -19.9140   -5.7810 C.2    79  SER79       0.2643
    113  O        -31.2900  -21.0820   -5.6690 O.2    79  SER79      -0.2714
    114  CB       -29.7930  -18.4450   -6.4510 C.3    79  SER79       0.2130
    115  OG       -30.4840  -18.2410   -7.6780 O.3    79  SER79      -0.2179
    116  N        -32.8660  -19.6150   -6.3120 N.am   80  TYR80      -0.1973
    117  CA       -33.7050  -20.7110   -6.7790 C.3    80  TYR80       0.1639
    118  C        -33.0200  -21.5020   -7.9040 C.2    80  TYR80       0.2290
    119  O        -33.4030  -22.6300   -8.2060 O.2    80  TYR80      -0.2864
    120  CB       -35.0980  -20.2180   -7.2020 C.3    80  TYR80       0.0560
    121  CG       -35.1490  -19.0770   -8.2090 C.ar   80  TYR80      -0.0198
    122  CD1      -34.7200  -19.2520   -9.5340 C.ar   80  TYR80      -0.0009
    123  CD2      -35.6900  -17.8430   -7.8530 C.ar   80  TYR80      -0.0009
    124  CE1      -34.8380  -18.2220  -10.4750 C.ar   80  TYR80       0.0417
    125  CE2      -35.8140  -16.8010   -8.7920 C.ar   80  TYR80       0.0417
    126  CZ       -35.3840  -17.0040  -10.0990 C.ar   80  TYR80       0.1957
    127  OH       -35.5230  -15.9890  -11.0260 O.3    80  TYR80      -0.2866
    128  N        -42.5790  -15.3250   -7.0540 N.3   100  ASP100     -0.1225
    129  CA       -43.1410  -13.9680   -7.0170 C.3   100  ASP100      0.1805
    130  C        -41.9150  -13.1230   -7.3940 C.2   100  ASP100      0.2598
    131  O        -41.0320  -12.8920   -6.5720 O.2   100  ASP100     -0.2718
    132  CB       -43.6440  -13.7000   -5.5850 C.3   100  ASP100      0.1424
    133  CG       -44.0390  -12.2450   -5.3340 C.2   100  ASP100      0.3668
    134  OD1      -43.8800  -11.3870   -6.2240 O.co2 100  ASP100     -0.2456
    135  OD2      -44.5060  -11.9660   -4.2050 O.co2 100  ASP100     -0.2456
    136  N        -41.8550  -12.6690   -8.6450 N.am  101  LEU101     -0.1966
    137  CA       -40.6810  -11.9610   -9.1450 C.3   101  LEU101      0.1728
    138  C        -40.5520  -10.4510   -8.9270 C.2   101  LEU101      0.2617
    139  O        -39.9300   -9.7560   -9.7290 O.2   101  LEU101     -0.2715
    140  CB       -40.5160  -12.2800  -10.6380 C.3   101  LEU101      0.0311
    141  CG       -40.6340  -13.7780  -10.9910 C.3   101  LEU101      0.0022
    142  CD1      -40.7920  -13.9480  -12.4980 C.3   101  LEU101      0.0001
    143  CD2      -39.4190  -14.5420  -10.4720 C.3   101  LEU101      0.0001
    144  N        -41.0960   -9.9450   -7.8330 N.am  102  GLY102     -0.1940
    145  CA       -41.0080   -8.5170   -7.5750 C.3   102  GLY102      0.2014
    146  C        -39.9190   -8.1050   -6.5930 C.2   102  GLY102      0.2639
    147  O        -38.8130   -8.6590   -6.5800 O.2   102  GLY102     -0.2714
    148  N        -40.2510   -7.1080   -5.7780 N.am  103  VAL103     -0.1963
    149  CA       -39.3500   -6.5730   -4.7650 C.3   103  VAL103      0.1727
    150  C        -40.1690   -6.5390   -3.4920 C.2   103  VAL103      0.2616
    151  O        -41.3480   -6.1900   -3.5210 O.2   103  VAL103     -0.2715
    152  CB       -38.8920   -5.1410   -5.1430 C.3   103  VAL103      0.0290
    153  CG1      -37.8480   -4.6340   -4.1490 C.3   103  VAL103      0.0023
    154  CG2      -38.3190   -5.1370   -6.5440 C.3   103  VAL103      0.0023
    155  N        -39.5690   -6.9010   -2.3680 N.am  104  SER104     -0.1950
    156  CA       -40.3290   -6.9200   -1.1210 C.3   104  SER104      0.1924
    157  C        -40.4640   -5.5140   -0.5340 C.2   104  SER104      0.2314
    158  O        -39.6840   -4.6030   -0.8570 O.2   104  SER104     -0.2863
    159  CB       -39.6660   -7.8540   -0.1030 C.3   104  SER104      0.2116
    160  OG       -38.8640   -7.1140    0.8070 O.3   104  SER104     -0.2180
    161  N        -37.5140   -4.3680    1.1880 N.3   107  GLN107     -0.1245
    162  CA       -36.4400   -4.0160    0.2690 C.3   107  GLN107      0.1566
    163  C        -36.6440   -2.5930   -0.2520 C.2   107  GLN107      0.2260
    164  O        -35.7000   -1.8100   -0.3230 O.2   107  GLN107     -0.2867
    165  CB       -36.3690   -5.0270   -0.8870 C.3   107  GLN107      0.0367
    166  CG       -35.9830   -6.4280   -0.3830 C.3   107  GLN107      0.0905
    167  CD       -35.9590   -7.4810   -1.4830 C.2   107  GLN107      0.2608
    168  OE1      -36.8490   -7.5230   -2.3320 O.2   107  GLN107     -0.2717
    169  NE2      -34.9480   -8.3500   -1.4580 N.am  107  GLN107     -0.0878
    170  N        -29.2310   -7.8870  -10.3730 N.3   211  ASN211     -0.1240
    171  CA       -29.6260   -9.1420   -9.7370 C.3   211  ASN211      0.1653
    172  C        -29.8340  -10.3260  -10.6590 C.2   211  ASN211      0.2266
    173  O        -30.3140  -11.3870  -10.2170 O.2   211  ASN211     -0.2867
    174  CB       -30.8710   -8.8710   -8.8870 C.3   211  ASN211      0.1155
    175  CG       -30.5720   -7.9060   -7.7570 C.2   211  ASN211      0.2627
    176  OD1      -29.9270   -8.2740   -6.7670 O.2   211  ASN211     -0.2716
    177  ND2      -30.9940   -6.6500   -7.9140 N.am  211  ASN211     -0.0877
    178  N        -31.9380  -11.0370  -12.7280 N.3   213  GLU213     -0.1245
    179  CA       -33.2830  -11.5820  -12.6250 C.3   213  GLU213      0.1567
    180  C        -33.8320  -12.3050  -13.8380 C.2   213  GLU213      0.2260
    181  O        -34.4810  -13.3330  -13.6960 O.2   213  GLU213     -0.2867
    182  CB       -34.2530  -10.4820  -12.2050 C.3   213  GLU213      0.0388
    183  CG       -33.8720   -9.8730  -10.8500 C.3   213  GLU213      0.1160
    184  CD       -34.7980   -8.7550  -10.4260 C.2   213  GLU213      0.3649
    185  OE1      -36.0310   -8.9160  -10.5470 O.co2 213  GLU213     -0.2457
    186  OE2      -34.2940   -7.7130   -9.9650 O.co2 213  GLU213     -0.2457
    187  N        -31.6660  -15.5690  -14.4640 N.3   216  ASN216     -0.1240
    188  CA       -32.0160  -16.5760  -13.4600 C.3   216  ASN216      0.1653
    189  C        -33.3550  -17.2440  -13.7620 C.2   216  ASN216      0.2266
    190  O        -33.4830  -18.4690  -13.6760 O.2   216  ASN216     -0.2867
    191  CB       -32.0780  -15.9560  -12.0560 C.3   216  ASN216      0.1155
    192  CG       -30.7010  -15.6820  -11.4810 C.2   216  ASN216      0.2627
    193  OD1      -29.7310  -16.3280  -11.8520 O.2   216  ASN216     -0.2716
    194  ND2      -30.6170  -14.7330  -10.5590 N.am  216  ASN216     -0.0877
    195  N        -47.4680   -2.7390   -4.7600 N.3   277  ARG277     -0.1245
    196  CA       -46.5140   -3.7730   -5.1630 C.3   277  ARG277      0.1563
    197  C        -47.1430   -4.7670   -6.1310 C.2   277  ARG277      0.2260
    198  O        -46.4340   -5.5730   -6.7420 O.2   277  ARG277     -0.2867
    199  CB       -45.9690   -4.5310   -3.9400 C.3   277  ARG277      0.0307
    200  CG       -44.8500   -3.8060   -3.1900 C.3   277  ARG277      0.0489
    201  CD       -44.3470   -4.6200   -1.9930 C.3   277  ARG277      0.2205
    202  NE       -44.0160   -5.9960   -2.3650 N.pl3 277  ARG277     -0.0865
    203  CZ       -44.7020   -7.0660   -1.9740 C.cat 277  ARG277      0.5346
    204  NH1      -45.7610   -6.9350   -1.1830 N.pl3 277  ARG277      0.1354
    205  NH2      -44.3470   -8.2720   -2.3990 N.pl3 277  ARG277      0.1354
@<TRIPOS>BOND
     1   187   188    1
     2   180   181    2
     3   180   179    1
     4   189   190    2
     5   189   188    1
     6   188   191    1
     7   178   179    1
     8   179   182    1
     9   142   141    1
    10   182   183    1
    11   191   192    1
    12   193   192    2
    13   192   194   am
    14   127   126    1
    15   141   140    1
    16   141   143    1
    17   183   184    1
    18   172   173    2
    19   172   171    1
    20   140   137    1
    21   185   184   ar
    22   124   126   ar
    23   124   122   ar
    24   184   186   ar
    25   170   171    1
    26   126   125   ar
    27   171   174    1
    28   139   138    2
    29   122   121   ar
    30   137   138    1
    31   137   136    1
    32   138   144   am
    33   174   175    1
    34   125   123   ar
    35   136   130   am
    36   121   123   ar
    37   121   120    1
    38   119   118    2
    39   177   175   am
    40   118   117    1
    41   144   145    1
    42   175   176    2
    43   115   114    1
    44   145   146    1
    45   130   129    1
    46   130   131    2
    47   120   117    1
    48   128   129    1
    49   129   132    1
    50   117   116    1
    51    31    30    1
    52   198   197    2
    53   146   147    2
    54   146   148   am
    55   154   152    1
    56   114   111    1
    57   116   112   am
    58   134   133   ar
    59    30    27    1
    60   197   196    1
    61    38    36    1
    62   112   113    2
    63   112   111    1
    64   148   149    1
    65   132   133    1
    66   133   135   ar
    67   111   110    1
    68   196   195    1
    69   196   199    1
    70   152   149    1
    71   152   153    1
    72    37    36    1
    73   149   150    1
    74    36    33    1
    75    27    28    1
    76    27    26    1
    77    29    28    2
    78    28    32   am
    79   110   105   am
    80    86    85    1
    81    26    20   am
    82   199   200    1
    83    32    33    1
    84    87    85    1
    85   151   150    2
    86    33    34    1
    87   150   155   am
    88    72    71   ar
    89    72    70   ar
    90    71    69   ar
    91   200   201    1
    92    85    82    1
    93   105   106    2
    94   105   104    1
    95   109   107    1
    96    20    19    1
    97    20    21    2
    98    70    68   ar
    99   205   203    1
   100   155   156    1
   101   202   201    1
   102   202   203    2
   103   168   167    2
   104    19    18    1
   105    19    22    1
   106    69    68   ar
   107    24    23   ar
   108    34    35    2
   109    34    39   am
   110   203   204    1
   111    68    67    1
   112   104   107    1
   113   104   103    1
   114    13    14    2
   115    13    12    1
   116   107   108    1
   117    82    81    1
   118    82    83    1
   119    81    75   am
   120   167   169   am
   121   167   166    1
   122    23    22    1
   123    23    25   ar
   124    39    40    1
   125   156   157    1
   126   156   159    1
   127    79    78   ar
   128    75    74    1
   129    75    76    2
   130    74    73    1
   131    74    77    1
   132   165   166    1
   133   165   162    1
   134    67    64    1
   135   158   157    2
   136    80    78   ar
   137    83    84    2
   138    83    88   am
   139    78    77    1
   140    12    15    1
   141    12    11    1
   142   164   163    2
   143   163   162    1
   144    88    89    1
   145   159   160    1
   146    15    16    1
   147    40    41    1
   148    40    43    1
   149   162   161    1
   150    46    41   am
   151    46    47    1
   152    92    89    1
   153    92    93    1
   154    64    63    1
   155    64    65    1
   156    11    17    1
   157    41    42    2
   158    89    90    1
   159    47    48    1
   160    95    93   ar
   161     9     7   ar
   162     9    10   ar
   163    43    44    1
   164    43    45    1
   165    63    61   am
   166    93    94   ar
   167    65    66    2
   168    16    17    1
   169     7     6   ar
   170    10     8   ar
   171   102   100    1
   172    90    91    2
   173    48    50   am
   174    48    49    2
   175    61    62    2
   176    61    60    1
   177   101   100    1
   178    50    51    1
   179     6     8   ar
   180     6     5    1
   181    60    59    1
   182   100    97    1
   183    58    56   ar
   184     3     2    1
   185     3     4    2
   186     2     5    1
   187     2     1    1
   188    55    56    1
   189    55    54    1
   190    56    57   ar
   191    51    54    1
   192    51    52    1
   193    97    96    1
   194    97    98    1
   195    52    53    2
   196    98    99    2
