@<TRIPOS>MOLECULE
tmp/1m6zD02.pdb
 83 78 0 0 0
SMALL
GASTEIGER

@<TRIPOS>ATOM
      1  N         41.3970    9.7440   29.4220 N.3    23  ASN23      -0.1240
      2  CA        42.0520   10.8510   30.1090 C.3    23  ASN23       0.1653
      3  C         41.5740   10.9000   31.5480 C.2    23  ASN23       0.2266
      4  O         40.6770   11.6010   31.9640 O.2    23  ASN23      -0.2867
      5  CB        41.8660   12.1730   29.3840 C.3    23  ASN23       0.1155
      6  CG        42.7860   12.2160   28.1700 C.2    23  ASN23       0.2627
      7  OD1       44.0120   12.1170   28.3160 O.2    23  ASN23      -0.2716
      8  ND2       42.1850   12.3420   27.0130 N.am   23  ASN23      -0.0877
      9  N         46.2770    7.5770   32.9350 N.3    31  LYS31      -0.1231
     10  CA        45.7780    7.9190   31.6010 C.3    31  LYS31       0.1693
     11  C         46.0850    6.7860   30.6320 C.2    31  LYS31       0.2592
     12  O         47.2180    6.2780   30.6020 O.2    31  LYS31      -0.2718
     13  CB        46.4080    9.2230   31.1340 C.3    31  LYS31       0.0285
     14  CG        46.1300   10.4430   31.9430 C.3    31  LYS31       0.0035
     15  CD        46.7960   11.6870   31.3740 C.3    31  LYS31       0.0206
     16  CE        46.6770   12.8920   32.2850 C.3    31  LYS31       0.1093
     17  NZ        47.5730   14.0140   31.8160 N.3    31  LYS31      -0.1314
     18  N         45.1220    6.4090   29.8120 N.am   32  LEU32      -0.1966
     19  CA        45.2650    5.4690   28.7130 C.3    32  LEU32       0.1728
     20  C         45.1580    6.0870   27.3260 C.2    32  LEU32       0.2616
     21  O         45.5560    5.4400   26.3490 O.2    32  LEU32      -0.2715
     22  CB        44.1480    4.3970   28.7950 C.3    32  LEU32       0.0311
     23  CG        43.9740    3.7190   30.1490 C.3    32  LEU32       0.0022
     24  CD1       42.8530    2.6800   30.0650 C.3    32  LEU32       0.0001
     25  CD2       45.2670    3.0650   30.6300 C.3    32  LEU32       0.0001
     26  N         44.5880    7.2770   27.2610 N.am   33  ALA33      -0.1977
     27  CA        44.2950    7.9380   25.9960 C.3    33  ALA33       0.1597
     28  C         45.6140    8.2030   25.2660 C.2    33  ALA33       0.2287
     29  O         46.5410    8.8140   25.8220 O.2    33  ALA33      -0.2864
     30  CB        43.5790    9.2410   26.2000 C.3    33  ALA33       0.0319
     31  N         47.9560    6.1730   24.5220 N.3    35  GLN35      -0.1245
     32  CA        48.9940    5.1750   24.7600 C.3    35  GLN35       0.1566
     33  C         49.2010    4.2910   23.5520 C.2    35  GLN35       0.2260
     34  O         48.2910    4.1340   22.7320 O.2    35  GLN35      -0.2867
     35  CB        48.6250    4.4220   26.0310 C.3    35  GLN35       0.0367
     36  CG        49.6270    3.3600   26.4490 C.3    35  GLN35       0.0905
     37  CD        51.0040    3.9740   26.6610 C.2    35  GLN35       0.2608
     38  OE1       51.8630    3.9710   25.7640 O.2    35  GLN35      -0.2717
     39  NE2       51.2080    4.5820   27.8150 N.am   35  GLN35      -0.0878
     40  N         45.8310   12.1330   24.1910 N.3    90  GLY90      -0.1210
     41  CA        46.1100   12.2770   25.6120 C.3    90  GLY90       0.1956
     42  C         46.2140   13.7240   26.0220 C.2    90  GLY90       0.2612
     43  O         46.7380   14.5790   25.3070 O.2    90  GLY90      -0.2717
     44  N         45.7110   14.0140   27.2000 N.am   91  SER91      -0.1952
     45  CA        45.7420   15.3410   27.7690 C.3    91  SER91       0.1924
     46  C         47.1170   15.7040   28.3040 C.2    91  SER91       0.2314
     47  O         47.8720   14.8200   28.6880 O.2    91  SER91      -0.2863
     48  CB        44.7170   15.4480   28.8860 C.3    91  SER91       0.2116
     49  OG        44.8280   14.4620   29.8560 O.3    91  SER91      -0.2180
     50  N         54.3700    5.2480   25.9600 N.3   137  LYS137     -0.1231
     51  CA        54.2540    6.6650   26.1500 C.3   137  LYS137      0.1693
     52  C         54.1650    7.0040   27.6360 C.2   137  LYS137      0.2592
     53  O         53.4210    6.3960   28.3780 O.2   137  LYS137     -0.2718
     54  CB        53.0090    7.1770   25.4430 C.3   137  LYS137      0.0285
     55  CG        52.8170    8.6710   25.5650 C.3   137  LYS137      0.0035
     56  CD        51.7810    9.2050   24.5860 C.3   137  LYS137      0.0206
     57  CE        51.6750   10.7220   24.6530 C.3   137  LYS137      0.1093
     58  NZ        50.3910   11.1740   24.0530 N.3   137  LYS137     -0.1314
     59  N         54.9420    7.9990   28.0240 N.am  138  LEU138     -0.1966
     60  CA        54.9890    8.4960   29.3870 C.3   138  LEU138      0.1728
     61  C         54.4810    9.9300   29.4910 C.2   138  LEU138      0.2617
     62  O         53.9860   10.3430   30.5530 O.2   138  LEU138     -0.2715
     63  CB        56.3950    8.4340   29.9680 C.3   138  LEU138      0.0311
     64  CG        57.1080    7.1010   29.9370 C.3   138  LEU138      0.0022
     65  CD1       58.4720    7.2560   30.5910 C.3   138  LEU138      0.0001
     66  CD2       56.3090    6.0190   30.6460 C.3   138  LEU138      0.0001
     67  N         54.7060   10.7330   28.4520 N.am  139  GLY139     -0.1940
     68  CA        54.4420   12.1480   28.6020 C.3   139  GLY139      0.2014
     69  C         53.0120   12.4250   28.9760 C.2   139  GLY139      0.2639
     70  O         52.0750   11.8370   28.4120 O.2   139  GLY139     -0.2714
     71  N         52.8420   13.3150   29.9310 N.am  140  GLY140     -0.1939
     72  CA        51.5210   13.7240   30.3720 C.3   140  GLY140      0.2014
     73  C         50.9490   12.7940   31.4290 C.2   140  GLY140      0.2638
     74  O         49.8870   13.0980   32.0040 O.2   140  GLY140     -0.2714
     75  N         51.5890   11.6560   31.7180 N.am  141  GLN141     -0.1977
     76  CA        51.0290   10.7330   32.6840 C.3   141  GLN141      0.1601
     77  C         50.9830   11.3660   34.0730 C.2   141  GLN141      0.2287
     78  O         51.8450   12.1840   34.3990 O.2   141  GLN141     -0.2864
     79  CB        51.8310    9.4360   32.7330 C.3   141  GLN141      0.0394
     80  CG        51.2430    8.2960   33.5550 C.3   141  GLN141      0.0908
     81  CD        49.8210    7.9620   33.1100 C.2   141  GLN141      0.2608
     82  OE1       48.8320    8.5270   33.6380 O.2   141  GLN141     -0.2717
     83  NE2       49.7120    7.0800   32.1190 N.am  141  GLN141     -0.0878
@<TRIPOS>BOND
     1    34    33    2
     2    33    32    1
     3    58    57    1
     4    40    41    1
     5    31    32    1
     6    56    57    1
     7    56    55    1
     8    32    35    1
     9    28    29    2
    10    28    27    1
    11    43    42    2
    12    54    55    1
    13    54    51    1
    14    41    42    1
    15    38    37    2
    16    50    51    1
    17    27    30    1
    18    27    26    1
    19    42    44   am
    20    35    36    1
    21    51    52    1
    22    21    20    2
    23    36    37    1
    24    37    39   am
    25     8     6   am
    26    44    45    1
    27    26    20   am
    28    20    19    1
    29    52    59   am
    30    52    53    2
    31    45    46    1
    32    45    48    1
    33    59    60    1
    34     6     7    2
    35     6     5    1
    36    46    47    2
    37    70    69    2
    38    67    68    1
    39    67    61   am
    40    68    69    1
    41    19    22    1
    42    19    18    1
    43    22    23    1
    44    48    49    1
    45    69    71   am
    46     5     2    1
    47    60    61    1
    48    60    63    1
    49     1     2    1
    50    61    62    2
    51    18    11   am
    52    71    72    1
    53    64    63    1
    54    64    65    1
    55    64    66    1
    56    24    23    1
    57     2     3    1
    58    23    25    1
    59    72    73    1
    60    12    11    2
    61    11    10    1
    62    13    10    1
    63    13    14    1
    64    15    14    1
    65    15    16    1
    66    73    75   am
    67    73    74    2
    68     3     4    2
    69    10     9    1
    70    75    76    1
    71    17    16    1
    72    83    81   am
    73    76    79    1
    74    76    77    1
    75    79    80    1
    76    81    80    1
    77    81    82    2
    78    77    78    2
