@<TRIPOS>MOLECULE
tmp/1m72E00.pdb
 187 184 0 0 0
SMALL
GASTEIGER

@<TRIPOS>ATOM
      1  N          5.5980   -6.2930  -10.1340 N.3    38  LYS38      -0.1231
      2  CA         6.3350   -6.5460  -11.3640 C.3    38  LYS38       0.1693
      3  C          7.5650   -7.4290  -11.1520 C.2    38  LYS38       0.2593
      4  O          8.0490   -7.6210  -10.0190 O.2    38  LYS38      -0.2718
      5  CB         6.7280   -5.2070  -11.9720 C.3    38  LYS38       0.0285
      6  CG         5.4820   -4.4370  -12.4270 C.3    38  LYS38       0.0035
      7  CD         5.7690   -2.9760  -12.8270 C.3    38  LYS38       0.0206
      8  CE         4.5010   -2.2220  -13.3460 C.3    38  LYS38       0.1093
      9  NZ         4.8100   -0.9150  -14.0800 N.3    38  LYS38      -0.1314
     10  N          8.0590   -8.0020  -12.2340 N.am   39  SER39      -0.1938
     11  CA         9.2450   -8.8240  -12.1270 C.3    39  SER39       0.2055
     12  C         10.4360   -7.9560  -11.6850 C.2    39  SER39       0.2643
     13  O         10.5010   -6.7430  -11.9770 O.2    39  SER39      -0.2714
     14  CB         9.5210   -9.5290  -13.4520 C.3    39  SER39       0.2130
     15  OG         8.7840  -10.7460  -13.5310 O.3    39  SER39      -0.2179
     16  N         11.3660   -8.5660  -10.9530 N.am   40  ARG40      -0.1963
     17  CA        12.5190   -7.8240  -10.4490 C.3    40  ARG40       0.1729
     18  C         13.7720   -8.0690  -11.2900 C.2    40  ARG40       0.2616
     19  O         14.8040   -8.4900  -10.7850 O.2    40  ARG40      -0.2715
     20  CB        12.7550   -8.1730   -8.9540 C.3    40  ARG40       0.0348
     21  CG        11.6010   -7.6850   -8.0120 C.3    40  ARG40       0.0492
     22  CD        11.8740   -7.9100   -6.4910 C.3    40  ARG40       0.2205
     23  NE        13.0950   -7.1890   -6.1100 N.pl3  40  ARG40      -0.0865
     24  CZ        14.2860   -7.7650   -5.9270 C.cat  40  ARG40       0.5346
     25  NH1       14.4220   -9.0670   -6.0560 N.pl3  40  ARG40       0.1354
     26  NH2       15.3670   -7.0200   -5.6920 N.pl3  40  ARG40       0.1354
     27  N         13.6670   -7.7880  -12.5780 N.am   41  THR41      -0.1951
     28  CA        14.7680   -7.9800  -13.5030 C.3    41  THR41       0.1897
     29  C         16.0700   -7.3970  -12.9490 C.2    41  THR41       0.2313
     30  O         16.1050   -6.2440  -12.5320 O.2    41  THR41      -0.2863
     31  CB        14.4500   -7.3310  -14.8780 C.3    41  THR41       0.1794
     32  OG1       13.2260   -7.8730  -15.3720 O.3    41  THR41      -0.2208
     33  CG2       15.5270   -7.6740  -15.8890 C.3    41  THR41       0.0378
     34  N         13.8680   -8.8830   -2.7160 N.3    96  THR96      -0.1203
     35  CA        12.4680   -8.9440   -3.1060 C.3    96  THR96       0.1994
     36  C         11.8230   -7.5690   -3.0350 C.2    96  THR96       0.2618
     37  O         12.4970   -6.5380   -2.8950 O.2    96  THR96      -0.2717
     38  CB        11.7060   -9.9620   -2.1510 C.3    96  THR96       0.1784
     39  OG1       10.3710  -10.2080   -2.6130 O.3    96  THR96      -0.2211
     40  CG2       11.6350   -9.3960   -0.7290 C.3    96  THR96       0.0376
     41  N         10.5080   -7.5670   -3.1430 N.am   97  HIS97      -0.1961
     42  CA         9.7270   -6.3470   -3.0440 C.3    97  HIS97       0.1787
     43  C          9.3340   -6.1960   -1.5710 C.2    97  HIS97       0.2620
     44  O          9.0950   -7.1900   -0.9100 O.2    97  HIS97      -0.2715
     45  CB         8.4480   -6.5020   -3.8490 C.3    97  HIS97       0.0785
     46  CG         8.6240   -6.2740   -5.3060 C.ar   97  HIS97       0.0821
     47  ND1        9.2660   -5.1600   -5.8040 N.ar   97  HIS97      -0.2267
     48  CD2        8.2010   -6.9860   -6.3770 C.ar   97  HIS97       0.1154
     49  CE1        9.2280   -5.1930   -7.1240 C.ar   97  HIS97       0.1986
     50  NE2        8.5860   -6.2880   -7.4980 N.ar   97  HIS97      -0.2212
     51  N          9.2400   -4.9750   -1.0730 N.am   98  GLY98      -0.1954
     52  CA         8.8150   -4.7970    0.2970 C.3    98  GLY98       0.1869
     53  C          8.0250   -3.5040    0.4490 C.2    98  GLY98       0.2309
     54  O          7.8520   -2.7410   -0.5200 O.2    98  GLY98      -0.2863
     55  N         17.4500   -6.5270    0.6770 N.3   137  GLN137     -0.1245
     56  CA        17.3260   -5.6170   -0.4750 C.3   137  GLN137      0.1566
     57  C         15.8170   -5.6300   -0.7860 C.2   137  GLN137      0.2260
     58  O         15.2770   -6.6190   -1.2660 O.2   137  GLN137     -0.2867
     59  CB        18.1340   -6.1320   -1.6800 C.3   137  GLN137      0.0367
     60  CG        17.8350   -5.4380   -3.0690 C.3   137  GLN137      0.0905
     61  CD        17.7660   -3.9030   -3.0080 C.2   137  GLN137      0.2608
     62  OE1       18.6370   -3.2570   -2.4580 O.2   137  GLN137     -0.2717
     63  NE2       16.7230   -3.3350   -3.5820 N.am  137  GLN137     -0.0878
     64  N         12.2840   -2.4240   -0.7600 N.3   139  CYS139     -0.1235
     65  CA        11.8170   -1.1080   -0.3140 C.3   139  CYS139      0.1677
     66  C         11.2420   -1.2400    1.0740 C.2   139  CYS139      0.2270
     67  O         10.6960   -2.2980    1.4170 O.2   139  CYS139     -0.2867
     68  CB        10.6740   -0.6090   -1.2040 C.3   139  CYS139      0.0956
     69  SG        11.2290   -0.2430   -2.8600 S.3   139  CYS139     -0.0801
     70  N          9.0990    1.1720    1.9820 N.3   141  GLY141     -0.1225
     71  CA         8.0140    2.1270    1.8040 C.3   141  GLY141      0.1811
     72  C          8.1500    2.7760    0.4360 C.2   141  GLY141      0.2280
     73  O          8.8920    2.2900   -0.4090 O.2   141  GLY141     -0.2866
     74  N         11.9940    3.8820   -0.6840 N.3   173  PHE173     -0.1227
     75  CA        12.1730    3.0410   -1.8460 C.3   173  PHE173      0.1736
     76  C         13.6320    2.5710   -1.8080 C.2   173  PHE173      0.2596
     77  O         14.5200    3.1990   -1.1840 O.2   173  PHE173     -0.2718
     78  CB        12.0320    3.8330   -3.1480 C.3   173  PHE173      0.0547
     79  CG        10.6310    4.1420   -3.5510 C.ar  173  PHE173     -0.0202
     80  CD1       10.2320    5.4730   -3.7230 C.ar  173  PHE173     -0.0042
     81  CD2        9.7400    3.1100   -3.8930 C.ar  173  PHE173     -0.0042
     82  CE1        8.9710    5.7750   -4.2470 C.ar  173  PHE173     -0.0003
     83  CE2        8.4710    3.3880   -4.4200 C.ar  173  PHE173     -0.0003
     84  CZ         8.0800    4.7190   -4.6050 C.ar  173  PHE173     -0.0000
     85  N         13.8740    1.4690   -2.4930 N.am  174  SER174     -0.1938
     86  CA        15.2210    0.9650   -2.6020 C.3   174  SER174      0.2055
     87  C         15.4300    0.8020   -4.1180 C.2   174  SER174      0.2643
     88  O         14.5270    0.3980   -4.8290 O.2   174  SER174     -0.2714
     89  CB        15.3310   -0.3410   -1.8460 C.3   174  SER174      0.2130
     90  OG        16.6030   -0.8610   -2.0040 O.3   174  SER174     -0.2179
     91  N         16.5920    1.1590   -4.6280 N.am  175  TRP175     -0.1959
     92  CA        16.8250    1.0370   -6.0740 C.3   175  TRP175      0.1771
     93  C         17.5860   -0.1990   -6.5980 C.2   175  TRP175      0.2620
     94  O         18.5530   -0.7110   -5.9810 O.2   175  TRP175     -0.2715
     95  CB        17.5050    2.3060   -6.5850 C.3   175  TRP175      0.0590
     96  CG        16.5980    3.5000   -6.5240 C.ar  175  TRP175      0.0006
     97  CD1       16.4860    4.4080   -5.4910 C.ar  175  TRP175      0.0946
     98  CD2       15.7280    3.9600   -7.5580 C.ar  175  TRP175      0.0152
     99  NE1       15.6040    5.4110   -5.8300 N.ar  175  TRP175     -0.2442
    100  CE2       15.1310    5.1700   -7.0980 C.ar  175  TRP175      0.0810
    101  CE3       15.4130    3.4860   -8.8390 C.ar  175  TRP175      0.0012
    102  CZ2       14.2300    5.9200   -7.8860 C.ar  175  TRP175      0.0191
    103  CZ3       14.5240    4.2240   -9.6340 C.ar  175  TRP175      0.0001
    104  CH2       13.9400    5.4350   -9.1460 C.ar  175  TRP175      0.0015
    105  N         17.1330   -0.6350   -7.7690 N.am  176  ARG176     -0.1963
    106  CA        17.6550   -1.7870   -8.4920 C.3   176  ARG176      0.1729
    107  C         17.8770   -1.4470   -9.9720 C.2   176  ARG176      0.2616
    108  O         16.9890   -0.8870  -10.6460 O.2   176  ARG176     -0.2715
    109  CB        16.6660   -2.9690   -8.4010 C.3   176  ARG176      0.0348
    110  CG        17.0140   -4.2360   -9.2780 C.3   176  ARG176      0.0492
    111  CD        16.0860   -5.3930   -8.9060 C.3   176  ARG176      0.2205
    112  NE        14.7450   -4.8620   -8.6610 N.pl3 176  ARG176     -0.0865
    113  CZ        13.8910   -4.4800   -9.6150 C.cat 176  ARG176      0.5346
    114  NH1       14.2540   -4.6010  -10.8870 N.pl3 176  ARG176      0.1354
    115  NH2       12.6960   -3.9210   -9.2980 N.pl3 176  ARG176      0.1354
    116  N         19.0670   -1.7520  -10.4870 N.am  177  ASN177     -0.1958
    117  CA        19.2740   -1.5250  -11.9050 C.3   177  ASN177      0.1819
    118  C         19.0580   -2.8740  -12.5980 C.2   177  ASN177      0.2622
    119  O         19.6210   -3.8970  -12.1820 O.2   177  ASN177     -0.2715
    120  CB        20.6410   -1.0140  -12.2140 C.3   177  ASN177      0.1195
    121  CG        20.8500   -0.8960  -13.7210 C.2   177  ASN177      0.2630
    122  OD1       21.3390   -1.8430  -14.3940 O.2   177  ASN177     -0.2716
    123  ND2       20.4240    0.2470  -14.2730 N.am  177  ASN177     -0.0877
    124  N         18.2500   -2.8810  -13.6520 N.am  178  THR178     -0.1937
    125  CA        17.9020   -4.1340  -14.3390 C.3   178  THR178      0.2028
    126  C         19.0850   -4.8510  -14.9690 C.2   178  THR178      0.2642
    127  O         19.0010   -6.0540  -15.2320 O.2   178  THR178     -0.2714
    128  CB        16.8020   -3.9300  -15.4390 C.3   178  THR178      0.1808
    129  OG1       17.2620   -2.9620  -16.3850 O.3   178  THR178     -0.2208
    130  CG2       15.4660   -3.4770  -14.8170 C.3   178  THR178      0.0379
    131  N         20.1850   -4.1490  -15.2260 N.am  179  THR179     -0.1950
    132  CA        21.2660   -4.9010  -15.7700 C.3   179  THR179      0.1897
    133  C         22.4090   -5.0800  -14.7510 C.2   179  THR179      0.2313
    134  O         23.0680   -6.1070  -14.7480 O.2   179  THR179     -0.2863
    135  CB        21.7050   -4.3500  -17.1950 C.3   179  THR179      0.1794
    136  OG1       23.0710   -3.9260  -17.1640 O.3   179  THR179     -0.2208
    137  CG2       20.7970   -3.2350  -17.6740 C.3   179  THR179      0.0378
    138  N         21.5220   -1.3630   -6.0350 N.3   183  TRP183     -0.1241
    139  CA        22.6300   -0.5150   -5.6410 C.3   183  TRP183      0.1605
    140  C         23.3400   -1.0960   -4.4110 C.2   183  TRP183      0.2264
    141  O         24.5870   -1.1480   -4.3400 O.2   183  TRP183     -0.2867
    142  CB        22.1250    0.8810   -5.3160 C.3   183  TRP183      0.0550
    143  CG        21.4830    1.5910   -6.4520 C.ar  183  TRP183      0.0003
    144  CD1       21.4390    1.1890   -7.7790 C.ar  183  TRP183      0.0946
    145  CD2       20.9390    2.9100   -6.4160 C.ar  183  TRP183      0.0152
    146  NE1       20.9350    2.1980   -8.5530 N.ar  183  TRP183     -0.2442
    147  CE2       20.6160    3.2650   -7.7490 C.ar  183  TRP183      0.0810
    148  CE3       20.7080    3.8260   -5.3980 C.ar  183  TRP183      0.0012
    149  CZ2       20.0760    4.5120   -8.0800 C.ar  183  TRP183      0.0191
    150  CZ3       20.1710    5.0590   -5.7150 C.ar  183  TRP183      0.0001
    151  CH2       19.8610    5.3980   -7.0510 C.ar  183  TRP183      0.0015
    152  N         22.6570    7.4440   -8.2830 N.3   217  GLU217     -0.1231
    153  CA        21.6440    8.4700   -8.4300 C.3   217  GLU217      0.1699
    154  C         20.6880    7.8940   -9.4860 C.2   217  GLU217      0.2593
    155  O         21.1250    7.4090  -10.5280 O.2   217  GLU217     -0.2718
    156  CB        22.2650    9.7440   -8.9260 C.3   217  GLU217      0.0402
    157  CG        21.2760   10.8290   -9.0430 C.3   217  GLU217      0.1161
    158  CD        21.9350   12.1510   -9.2700 C.2   217  GLU217      0.3649
    159  OE1       22.2170   12.8380   -8.2780 O.co2 217  GLU217     -0.2457
    160  OE2       22.1820   12.4770  -10.4450 O.co2 217  GLU217     -0.2457
    161  N         19.3890    7.9250   -9.2210 N.am  218  SER218     -0.1938
    162  CA        18.4590    7.3150  -10.1660 C.3   218  SER218      0.2055
    163  C         18.3920    8.0000  -11.5110 C.2   218  SER218      0.2643
    164  O         18.4870    9.2240  -11.6270 O.2   218  SER218     -0.2714
    165  CB        17.0460    7.2100   -9.5640 C.3   218  SER218      0.2130
    166  OG        16.4040    8.4840   -9.5160 O.3   218  SER218     -0.2179
    167  N         18.2580    7.1840  -12.5370 N.am  219  ASN219     -0.1957
    168  CA        18.1140    7.7300  -13.8760 C.3   219  ASN219      0.1819
    169  C         16.7680    7.2450  -14.4210 C.2   219  ASN219      0.2621
    170  O         16.6500    6.0900  -14.8560 O.2   219  ASN219     -0.2715
    171  CB        19.2340    7.2660  -14.7810 C.3   219  ASN219      0.1195
    172  CG        19.1970    7.9590  -16.1390 C.2   219  ASN219      0.2630
    173  OD1       19.7270    7.4460  -17.1000 O.2   219  ASN219     -0.2716
    174  ND2       18.5710    9.1190  -16.2120 N.am  219  ASN219     -0.0877
    175  N         15.7610    8.1290  -14.3510 N.am  220  ALA220     -0.1977
    176  CA        14.3950    7.8350  -14.8120 C.3   220  ALA220      0.1597
    177  C         13.7940    9.0880  -15.4580 C.2   220  ALA220      0.2287
    178  O         12.9060    9.7260  -14.9210 O.2   220  ALA220     -0.2864
    179  CB        13.5270    7.3750  -13.6440 C.3   220  ALA220      0.0319
    180  N         10.6890   10.3450  -10.0590 N.3   226  MET226     -0.1245
    181  CA        11.5830    9.2420   -9.7320 C.3   226  MET226      0.1570
    182  C         13.0170    9.4870  -10.1870 C.2   226  MET226      0.2261
    183  O         13.8990    8.6450  -10.0030 O.2   226  MET226     -0.2867
    184  CB        11.0650    7.9960  -10.4050 C.3   226  MET226      0.0387
    185  CG         9.6500    7.6270  -10.0190 C.3   226  MET226      0.0595
    186  SD         9.5580    7.2400   -8.2390 S.3   226  MET226     -0.1393
    187  CE        10.2020    5.5850   -8.3010 C.3   226  MET226      0.0692
@<TRIPOS>BOND
     1   137   135    1
     2   135   136    1
     3   135   132    1
     4   173   172    2
     5   129   128    1
     6   174   172   am
     7   172   171    1
     8    33    31    1
     9   132   131    1
    10   132   133    1
    11   177   178    2
    12   177   176    1
    13   128   130    1
    14   128   125    1
    15    32    31    1
    16   127   126    2
    17   131   126   am
    18   126   125    1
    19    31    28    1
    20   170   169    2
    21   176   175    1
    22   176   179    1
    23   171   168    1
    24   133   134    2
    25   169   175   am
    26   169   168    1
    27   122   121    2
    28   125   124    1
    29   123   121   am
    30     9     8    1
    31   168   167    1
    32   121   120    1
    33   124   118   am
    34    15    14    1
    35    28    29    1
    36    28    27    1
    37    14    11    1
    38     8     7    1
    39    29    30    2
    40     7     6    1
    41   118   119    2
    42   118   117    1
    43    27    18   am
    44   167   163   am
    45     6     5    1
    46    10    11    1
    47    10     3   am
    48   120   117    1
    49    11    12    1
    50    13    12    2
    51     5     2    1
    52   117   116    1
    53    12    16   am
    54   164   163    2
    55   163   162    1
    56     2     3    1
    57     2     1    1
    58    18    19    2
    59    18    17    1
    60     3     4    2
    61    16    17    1
    62   114   113    1
    63   108   107    2
    64   155   154    2
    65   116   107   am
    66    17    20    1
    67   160   158   ar
    68   184   185    1
    69   184   181    1
    70   182   183    2
    71   182   181    1
    72   162   165    1
    73   162   161    1
    74   180   181    1
    75   185   186    1
    76   107   106    1
    77   103   104   ar
    78   103   101   ar
    79   113   115    1
    80   113   112    2
    81   165   166    1
    82   154   161   am
    83   154   153    1
    84   110   111    1
    85   110   109    1
    86   158   157    1
    87   158   159   ar
    88   104   102   ar
    89   157   156    1
    90    20    21    1
    91   156   153    1
    92   111   112    1
    93   101    98   ar
    94   146   144   ar
    95   146   147   ar
    96   106   109    1
    97   106   105    1
    98   153   152    1
    99   187   186    1
   100   149   147   ar
   101   149   151   ar
   102    21    22    1
   103   102   100   ar
   104   144   143   ar
   105   105    93   am
   106   147   145   ar
   107    98   100   ar
   108    98    96   ar
   109    50    49   ar
   110    50    48   ar
   111    49    47   ar
   112   100    99   ar
   113   151   150   ar
   114    93    92    1
   115    93    94    2
   116    95    96    1
   117    95    92    1
   118    96    97   ar
   119    22    23    1
   120   143   145   ar
   121   143   142    1
   122   145   148   ar
   123    48    46   ar
   124    23    24    2
   125    92    91    1
   126    25    24    1
   127   138   139    1
   128    24    26    1
   129    99    97   ar
   130    47    46   ar
   131   150   148   ar
   132   139   142    1
   133   139   140    1
   134    46    45    1
   135    88    87    2
   136    91    87   am
   137    84    83   ar
   138    84    82   ar
   139    83    81   ar
   140   140   141    2
   141    82    80   ar
   142    87    86    1
   143    81    79   ar
   144    45    42    1
   145    80    79   ar
   146    63    61   am
   147    79    78    1
   148    78    75    1
   149    41    42    1
   150    41    36   am
   151    35    36    1
   152    35    34    1
   153    35    38    1
   154    60    61    1
   155    60    59    1
   156    42    43    1
   157    36    37    2
   158    61    62    2
   159    69    68    1
   160    39    38    1
   161    86    85    1
   162    86    89    1
   163    85    76   am
   164    38    40    1
   165    90    89    1
   166    75    76    1
   167    75    74    1
   168    76    77    2
   169    59    56    1
   170    43    51   am
   171    43    44    2
   172    58    57    2
   173    68    65    1
   174    51    52    1
   175    57    56    1
   176    64    65    1
   177    54    53    2
   178    56    55    1
   179    73    72    2
   180    65    66    1
   181    52    53    1
   182    72    71    1
   183    66    67    2
   184    71    70    1
