@<TRIPOS>MOLECULE
tmp/1m74A00.pdb
 178 171 0 0 0
SMALL
GASTEIGER

@<TRIPOS>ATOM
      1  N         29.5460  102.0350   51.9830 N.3    78  GLY78      -0.1210
      2  CA        29.5840  102.7630   50.7290 C.3    78  GLY78       0.1956
      3  C         29.8430  101.8210   49.5730 C.2    78  GLY78       0.2612
      4  O         30.1860  102.2490   48.4610 O.2    78  GLY78      -0.2717
      5  N         29.6830  100.5270   49.8290 N.am   79  MET79      -0.1965
      6  CA        29.9210   99.5430   48.7890 C.3    79  MET79       0.1736
      7  C         28.6340   98.8750   48.4700 C.2    79  MET79       0.2616
      8  O         27.9960   98.3140   49.3640 O.2    79  MET79      -0.2715
      9  CB        30.8870   98.4740   49.2590 C.3    79  MET79       0.0427
     10  CG        32.0930   99.0020   49.9730 C.3    79  MET79       0.0599
     11  SD        33.2250   97.6870   50.3970 S.3    79  MET79      -0.1393
     12  CE        32.1870   96.5640   51.2550 C.3    79  MET79       0.0692
     13  N         28.2480   98.9610   47.2000 N.am   80  PHE80      -0.1960
     14  CA        27.0230   98.3290   46.7250 C.3    80  PHE80       0.1756
     15  C         27.3740   97.0590   45.9410 C.2    80  PHE80       0.2461
     16  O         27.8680   97.1110   44.7900 O.2    80  PHE80      -0.2730
     17  CB        26.2030   99.2700   45.8600 C.3    80  PHE80       0.0574
     18  CG        24.7740   98.8420   45.6860 C.ar   80  PHE80      -0.0200
     19  CD1       23.9620   98.5930   46.7970 C.ar   80  PHE80      -0.0042
     20  CD2       24.2120   98.7660   44.4080 C.ar   80  PHE80      -0.0042
     21  CE1       22.5900   98.2840   46.6310 C.ar   80  PHE80      -0.0003
     22  CE2       22.8470   98.4600   44.2280 C.ar   80  PHE80      -0.0003
     23  CZ        22.0340   98.2180   45.3350 C.ar   80  PHE80      -0.0000
     24  N         27.1830   95.9040   46.6040 N.am   81  PRO81      -0.2716
     25  CA        27.4170   94.5400   46.1460 C.3    81  PRO81       0.1536
     26  C         27.1550   94.3570   44.6830 C.2    81  PRO81       0.2598
     27  O         26.1500   94.8390   44.1500 O.2    81  PRO81      -0.2715
     28  CB        26.4290   93.7510   46.9860 C.3    81  PRO81       0.0310
     29  CG        26.5920   94.4510   48.3150 C.3    81  PRO81       0.0237
     30  CD        26.6250   95.9030   47.9730 C.3    81  PRO81       0.0939
     31  N         28.0750   93.6550   44.0380 N.am   82  PHE82      -0.1974
     32  CA        27.9850   93.3860   42.6220 C.3    82  PHE82       0.1639
     33  C         27.0190   92.2580   42.3560 C.2    82  PHE82       0.2290
     34  O         26.6300   91.5220   43.2660 O.2    82  PHE82      -0.2864
     35  CB        29.3730   93.0870   42.0730 C.3    82  PHE82       0.0560
     36  CG        30.3580   94.1960   42.3270 C.ar   82  PHE82      -0.0200
     37  CD1       31.5340   93.9680   43.0190 C.ar   82  PHE82      -0.0042
     38  CD2       30.0780   95.4880   41.9000 C.ar   82  PHE82      -0.0042
     39  CE1       32.4140   95.0110   43.2920 C.ar   82  PHE82      -0.0003
     40  CE2       30.9530   96.5370   42.1670 C.ar   82  PHE82      -0.0003
     41  CZ        32.1250   96.2960   42.8640 C.ar   82  PHE82      -0.0000
     42  N         28.6230   89.1320   43.3810 N.3    85  GLN85      -0.1245
     43  CA        28.6350   88.9050   44.8240 C.3    85  GLN85       0.1566
     44  C         27.2640   88.3780   45.2860 C.2    85  GLN85       0.2260
     45  O         27.1960   87.5470   46.1890 O.2    85  GLN85      -0.2867
     46  CB        29.0190   90.1840   45.5940 C.3    85  GLN85       0.0367
     47  CG        30.4700   90.6400   45.3800 C.3    85  GLN85       0.0905
     48  CD        30.7890   91.9960   46.0260 C.2    85  GLN85       0.2608
     49  OE1       30.0660   92.9660   45.8320 O.2    85  GLN85      -0.2717
     50  NE2       31.9050   92.0770   46.7280 N.am   85  GLN85      -0.0878
     51  N         40.0330   85.1490   44.0810 N.3   102  THR102     -0.1203
     52  CA        40.6650   85.9920   45.1040 C.3   102  THR102      0.1994
     53  C         40.5170   87.4690   44.7770 C.2   102  THR102      0.2618
     54  O         41.0840   87.9360   43.8060 O.2   102  THR102     -0.2717
     55  CB        42.1930   85.6920   45.2370 C.3   102  THR102      0.1784
     56  OG1       42.4700   84.3210   44.8970 O.3   102  THR102     -0.2211
     57  CG2       42.6620   85.9520   46.6670 C.3   102  THR102      0.0376
     58  N         39.7490   88.1970   45.5810 N.am  103  GLY103     -0.1942
     59  CA        39.5530   89.6230   45.3370 C.3   103  GLY103      0.2014
     60  C         38.1690   90.0140   44.8320 C.2   103  GLY103      0.2639
     61  O         37.9280   91.1770   44.4910 O.2   103  GLY103     -0.2714
     62  N         37.2640   89.0420   44.7440 N.am  104  GLU104     -0.1963
     63  CA        35.9120   89.3180   44.2980 C.3   104  GLU104      0.1733
     64  C         35.0470   89.8530   45.4600 C.2   104  GLU104      0.2617
     65  O         33.8820   90.1880   45.2490 O.2   104  GLU104     -0.2715
     66  CB        35.2920   88.0660   43.6520 C.3   104  GLU104      0.0429
     67  CG        35.7090   87.8040   42.1950 C.3   104  GLU104      0.1163
     68  CD        35.2460   88.8970   41.2290 C.2   104  GLU104      0.3649
     69  OE1       34.0280   88.9910   40.9720 O.co2 104  GLU104     -0.2457
     70  OE2       36.0940   89.6610   40.7160 O.co2 104  GLU104     -0.2457
     71  N         35.6220   89.9390   46.6700 N.am  105  GLY105     -0.1940
     72  CA        34.9120   90.4470   47.8370 C.3   105  GLY105      0.2014
     73  C         34.1550   89.4100   48.6450 C.2   105  GLY105      0.2639
     74  O         33.0550   89.6440   49.1650 O.2   105  GLY105     -0.2714
     75  N         34.7510   88.2400   48.7590 N.am  106  LYS106     -0.1963
     76  CA        34.1290   87.1590   49.5030 C.3   106  LYS106      0.1728
     77  C         33.6330   87.5830   50.8820 C.2   106  LYS106      0.2617
     78  O         32.5860   87.1340   51.3170 O.2   106  LYS106     -0.2715
     79  CB        35.0780   85.9590   49.5720 C.3   106  LYS106      0.0311
     80  CG        35.1600   85.2330   48.2240 C.3   106  LYS106      0.0038
     81  CD        36.1350   84.0940   48.2330 C.3   106  LYS106      0.0206
     82  CE        37.5350   84.6150   48.3820 C.3   106  LYS106      0.1093
     83  NZ        37.8380   85.4930   47.2390 N.3   106  LYS106     -0.1314
     84  N         34.3170   88.5340   51.5090 N.am  107  THR107     -0.1937
     85  CA        33.9170   89.0170   52.8320 C.3   107  THR107      0.2028
     86  C         32.5110   89.6690   52.8090 C.2   107  THR107      0.2642
     87  O         31.5710   89.2730   53.5260 O.2   107  THR107     -0.2714
     88  CB        34.9680   90.0180   53.3540 C.3   107  THR107      0.1808
     89  OG1       36.2720   89.4350   53.2160 O.3   107  THR107     -0.2208
     90  CG2       34.7480   90.3390   54.8290 C.3   107  THR107      0.0379
     91  N         32.3640   90.6630   51.9570 N.am  108  LEU108     -0.1977
     92  CA        31.0890   91.3180   51.8510 C.3   108  LEU108      0.1596
     93  C         29.9760   90.3390   51.4510 C.2   108  LEU108      0.2287
     94  O         28.8640   90.3650   51.9700 O.2   108  LEU108     -0.2864
     95  CB        31.2020   92.4440   50.8420 C.3   108  LEU108      0.0297
     96  CG        29.9960   93.3690   50.9100 C.3   108  LEU108      0.0022
     97  CD1       29.9760   94.0440   52.2810 C.3   108  LEU108      0.0001
     98  CD2       30.0450   94.3910   49.7600 C.3   108  LEU108      0.0001
     99  N         39.1980   91.0690   62.4480 N.3   136  ARG136     -0.1245
    100  CA        39.0910   92.0680   61.4020 C.3   136  ARG136      0.1563
    101  C         37.6840   92.0500   60.7770 C.2   136  ARG136      0.2260
    102  O         36.9530   93.0480   60.8180 O.2   136  ARG136     -0.2867
    103  CB        40.1430   91.8250   60.3000 C.3   136  ARG136      0.0307
    104  CG        39.8310   92.5700   58.9870 C.3   136  ARG136      0.0489
    105  CD        41.0100   92.7150   58.0490 C.3   136  ARG136      0.2205
    106  NE        41.1810   91.5790   57.1380 N.pl3 136  ARG136     -0.0865
    107  CZ        40.3100   91.2250   56.1940 C.cat 136  ARG136      0.5346
    108  NH1       39.1850   91.9050   56.0320 N.pl3 136  ARG136      0.1354
    109  NH2       40.6030   90.2380   55.3560 N.pl3 136  ARG136      0.1354
    110  N         35.0530   80.8860   55.5410 N.3   207  ASP207     -0.1225
    111  CA        35.7870   81.7210   54.6070 C.3   207  ASP207      0.1805
    112  C         37.0570   80.9240   54.3200 C.2   207  ASP207      0.2597
    113  O         37.7280   80.4760   55.2500 O.2   207  ASP207     -0.2718
    114  CB        36.1410   83.0810   55.2100 C.3   207  ASP207      0.1424
    115  CG        36.8360   84.0220   54.2030 C.2   207  ASP207      0.3668
    116  OD1       36.8910   83.6980   52.9850 O.co2 207  ASP207     -0.2456
    117  OD2       37.3380   85.0980   54.6400 O.co2 207  ASP207     -0.2456
    118  N         37.3590   80.7160   53.0380 N.am  208  GLU208     -0.1979
    119  CA        38.5210   79.9240   52.6300 C.3   208  GLU208      0.1602
    120  C         38.4510   78.5110   53.1630 C.2   208  GLU208      0.2287
    121  O         39.1880   78.1000   54.0720 O.2   208  GLU208     -0.2864
    122  CB        39.8310   80.5960   53.0030 C.3   208  GLU208      0.0415
    123  CG        40.2700   81.5780   51.9370 C.3   208  GLU208      0.1163
    124  CD        40.7920   82.8680   52.5180 C.2   208  GLU208      0.3649
    125  OE1       41.1700   82.8660   53.7110 O.co2 208  GLU208     -0.2457
    126  OE2       40.8250   83.8810   51.7800 O.co2 208  GLU208     -0.2457
    127  N         44.1040   86.8170   52.3870 N.3   490  GLY490     -0.1225
    128  CA        42.9040   87.5560   52.7570 C.3   490  GLY490      0.1811
    129  C         42.9200   89.0690   52.5890 C.2   490  GLY490      0.2280
    130  O         41.8740   89.6580   52.2410 O.2   490  GLY490     -0.2866
    131  N         43.8370   92.2460   50.6740 N.3   492  ASP492     -0.1239
    132  CA        44.1130   92.4410   49.2640 C.3   492  ASP492      0.1674
    133  C         44.9520   93.6580   48.9200 C.2   492  ASP492      0.2266
    134  O         44.9110   94.6880   49.5950 O.2   492  ASP492     -0.2867
    135  CB        42.8520   92.2760   48.3740 C.3   492  ASP492      0.1410
    136  CG        41.9620   93.5150   48.3140 C.2   492  ASP492      0.3668
    137  OD1       41.8840   94.2790   49.2990 O.co2 492  ASP492     -0.2456
    138  OD2       41.3080   93.7010   47.2620 O.co2 492  ASP492     -0.2456
    139  N         46.0160   96.6570   46.6290 N.3   494  LYS494     -0.1245
    140  CA        45.4170   97.5760   45.6730 C.3   494  LYS494      0.1561
    141  C         46.5460   98.2130   44.8700 C.2   494  LYS494      0.2260
    142  O         47.6340   98.4940   45.4100 O.2   494  LYS494     -0.2867
    143  CB        44.5280   98.6210   46.3560 C.3   494  LYS494      0.0271
    144  CG        43.1900   98.0650   46.8660 C.3   494  LYS494      0.0035
    145  CD        42.2020   99.1790   47.2470 C.3   494  LYS494      0.0206
    146  CE        40.9420   98.6540   47.9610 C.3   494  LYS494      0.1093
    147  NZ        41.2000   98.1990   49.3700 N.3   494  LYS494     -0.1314
    148  N         46.8920   86.8050   43.5880 N.3   525  ARG525     -0.1245
    149  CA        47.1820   88.1640   44.0790 C.3   525  ARG525      0.1563
    150  C         47.2780   89.3580   43.0810 C.2   525  ARG525      0.2260
    151  O         47.3030   90.5080   43.5170 O.2   525  ARG525     -0.2867
    152  CB        48.4220   88.1240   44.9840 C.3   525  ARG525      0.0307
    153  CG        48.3230   87.1470   46.1540 C.3   525  ARG525      0.0489
    154  CD        47.3450   87.6200   47.2100 C.3   525  ARG525      0.2205
    155  NE        46.7830   86.4870   47.9390 N.pl3 525  ARG525     -0.0865
    156  CZ        45.7850   86.5680   48.8170 C.cat 525  ARG525      0.5346
    157  NH1       45.2200   87.7340   49.0960 N.pl3 525  ARG525      0.1354
    158  NH2       45.3460   85.4720   49.4170 N.pl3 525  ARG525      0.1354
    159  N         43.4880   92.2540   40.4340 N.3   528  ARG528     -0.1231
    160  CA        42.3850   92.5140   41.3350 C.3   528  ARG528      0.1694
    161  C         41.2230   93.2820   40.6600 C.2   528  ARG528      0.2591
    162  O         41.1210   94.5040   40.7850 O.2   528  ARG528     -0.2718
    163  CB        42.9560   93.3000   42.5060 C.3   528  ARG528      0.0321
    164  CG        41.9430   93.8300   43.4600 C.3   528  ARG528      0.0489
    165  CD        42.4440   95.1000   44.0760 C.3   528  ARG528      0.2205
    166  NE        41.4470   95.6910   44.9520 N.pl3 528  ARG528     -0.0865
    167  CZ        40.3280   96.2720   44.5340 C.cat 528  ARG528      0.5346
    168  NH1       40.0460   96.3560   43.2360 N.pl3 528  ARG528      0.1354
    169  NH2       39.4730   96.7560   45.4270 N.pl3 528  ARG528      0.1354
    170  N         40.3580   92.5480   39.9490 N.am  529  GLN529     -0.1979
    171  CA        39.1790   93.0820   39.2350 C.3   529  GLN529      0.1601
    172  C         39.5480   93.9050   38.0160 C.2   529  GLN529      0.2287
    173  O         39.4860   95.1400   38.0480 O.2   529  GLN529     -0.2864
    174  CB        38.2700   93.9030   40.1640 C.3   529  GLN529      0.0394
    175  CG        36.8210   93.4320   40.1860 C.3   529  GLN529      0.0908
    176  CD        35.9490   94.2680   41.1030 C.2   529  GLN529      0.2608
    177  OE1       35.7130   95.4470   40.8450 O.2   529  GLN529     -0.2717
    178  NE2       35.4810   93.6670   42.1900 N.am  529  GLN529     -0.0878
@<TRIPOS>BOND
     1   172   173    2
     2   172   171    1
     3   171   170    1
     4   171   174    1
     5   170   161   am
     6   174   175    1
     7   175   176    1
     8   159   160    1
     9   161   162    2
    10   161   160    1
    11    70    68   ar
    12   177   176    2
    13    69    68   ar
    14   176   178   am
    15    68    67    1
    16   160   163    1
    17    38    40   ar
    18    38    36   ar
    19    35    36    1
    20    35    32    1
    21    40    41   ar
    22    67    66    1
    23    36    37   ar
    24    33    32    1
    25    33    34    2
    26   163   164    1
    27    32    31    1
    28    41    39   ar
    29    37    39   ar
    30   150   151    2
    31   150   149    1
    32   168   167    1
    33    42    43    1
    34   164   165    1
    35   148   149    1
    36    66    63    1
    37    54    53    2
    38    31    26   am
    39   165   166    1
    40   149   152    1
    41    51    52    1
    42    27    26    2
    43    22    20   ar
    44    22    23   ar
    45    63    62    1
    46    63    64    1
    47    20    18   ar
    48    61    60    2
    49   167   166    2
    50   167   169    1
    51    26    25    1
    52    62    60   am
    53    53    52    1
    54    53    58   am
    55    16    15    2
    56    43    44    1
    57    43    46    1
    58    60    59    1
    59   141   142    2
    60   141   140    1
    61    56    55    1
    62   152   153    1
    63    52    55    1
    64    55    57    1
    65    65    64    2
    66    44    45    2
    67    23    21   ar
    68    59    58    1
    69    47    46    1
    70    47    48    1
    71    64    71   am
    72   140   143    1
    73   140   139    1
    74    18    17    1
    75    18    19   ar
    76    49    48    2
    77    17    14    1
    78    15    24   am
    79    15    14    1
    80    48    50   am
    81    25    24    1
    82    25    28    1
    83   153   154    1
    84   143   144    1
    85    24    30    1
    86    21    19   ar
    87    71    72    1
    88    14    13    1
    89   144   145    1
    90    28    29    1
    91    13     7   am
    92   154   155    1
    93    83    82    1
    94   145   146    1
    95   138   136   ar
    96    72    73    1
    97   155   156    2
    98   146   147    1
    99    30    29    1
   100    80    81    1
   101    80    79    1
   102    81    82    1
   103   136   135    1
   104   136   137   ar
   105   135   132    1
   106     4     3    2
   107     7     6    1
   108     7     8    2
   109    73    75   am
   110    73    74    2
   111    75    76    1
   112     6     9    1
   113     6     5    1
   114   156   157    1
   115   156   158    1
   116   133   132    1
   117   133   134    2
   118     9    10    1
   119   132   131    1
   120    76    79    1
   121    76    77    1
   122     3     5   am
   123     3     2    1
   124    98    96    1
   125    10    11    1
   126    11    12    1
   127     2     1    1
   128    95    96    1
   129    95    92    1
   130    77    78    2
   131    77    84   am
   132    96    97    1
   133    93    92    1
   134    93    94    2
   135    84    85    1
   136   126   124   ar
   137    92    91    1
   138   123   124    1
   139   123   122    1
   140    91    86   am
   141   130   129    2
   142   127   128    1
   143   124   125   ar
   144   129   128    1
   145   119   122    1
   146   119   118    1
   147   119   120    1
   148    86    85    1
   149    86    87    2
   150    85    88    1
   151   116   115   ar
   152   118   112   am
   153   120   121    2
   154    89    88    1
   155    88    90    1
   156   115   117   ar
   157   115   114    1
   158   112   111    1
   159   112   113    2
   160   111   114    1
   161   111   110    1
   162   109   107    1
   163   108   107    1
   164   107   106    2
   165   106   105    1
   166   105   104    1
   167   104   103    1
   168   103   100    1
   169   101   102    2
   170   101   100    1
   171   100    99    1
