@<TRIPOS>MOLECULE
tmp/1m78A01.pdb
 102 97 0 0 0
SMALL
GASTEIGER

@<TRIPOS>ATOM
      1  N         25.4890    2.8370    4.9710 N.3     9  ILE9       -0.1231
      2  CA        25.6160    2.4580    3.4620 C.3     9  ILE9        0.1692
      3  C         25.5420    0.9600    3.4800 C.2     9  ILE9        0.2592
      4  O         26.3240    0.2680    4.1790 O.2     9  ILE9       -0.2718
      5  CB        26.8870    3.0720    2.8650 C.3     9  ILE9        0.0266
      6  CG1       26.9980    2.5910    1.3460 C.3     9  ILE9        0.0019
      7  CG2       28.2560    2.7650    3.5920 C.3     9  ILE9        0.0020
      8  CD1       27.9300    3.5470    0.5100 C.3     9  ILE9        0.0001
      9  N         24.6380    0.3660    2.6430 N.am   10  VAL10      -0.1966
     10  CA        24.4680   -1.0810    2.5920 C.3    10  VAL10       0.1727
     11  C         23.9020   -1.5020    1.1890 C.2    10  VAL10       0.2616
     12  O         23.3050   -0.6230    0.5780 O.2    10  VAL10      -0.2715
     13  CB        23.4610   -1.5110    3.6880 C.3    10  VAL10       0.0290
     14  CG1       22.1280   -0.7530    3.5910 C.3    10  VAL10       0.0023
     15  CG2       23.2050   -3.0110    3.8100 C.3    10  VAL10       0.0023
     16  N         24.1470   -2.7310    0.8650 N.am   11  ALA11      -0.1977
     17  CA        23.5550   -3.3100   -0.3950 C.3    11  ALA11       0.1597
     18  C         22.5850   -4.4100    0.0470 C.2    11  ALA11       0.2287
     19  O         22.9950   -5.3060    0.7890 O.2    11  ALA11      -0.2864
     20  CB        24.7010   -3.8900   -1.2260 C.3    11  ALA11       0.0319
     21  N         28.8760  -11.9010    1.7680 N.3    25  MET25      -0.1245
     22  CA        27.8370  -11.2780    0.8970 C.3    25  MET25       0.1570
     23  C         27.4550  -12.3910   -0.1110 C.2    25  MET25       0.2261
     24  O         28.3140  -13.1570   -0.5550 O.2    25  MET25      -0.2867
     25  CB        28.2640   -9.9900    0.2400 C.3    25  MET25       0.0387
     26  CG        28.5540   -8.9250    1.2640 C.3    25  MET25       0.0595
     27  SD        29.2160   -7.4460    0.4480 S.3    25  MET25      -0.1393
     28  CE        27.7060   -6.7610   -0.2780 C.3    25  MET25       0.0692
     29  N         29.3760   -2.2660   -7.9420 N.3    32  GLU32      -0.1231
     30  CA        28.8540   -1.8490   -6.5800 C.3    32  GLU32       0.1699
     31  C         29.9870   -1.6770   -5.6150 C.2    32  GLU32       0.2592
     32  O         29.9430   -0.6580   -4.8910 O.2    32  GLU32      -0.2718
     33  CB        27.8550   -2.8980   -6.0500 C.3    32  GLU32       0.0402
     34  CG        26.6730   -2.4100   -5.2010 C.3    32  GLU32       0.1161
     35  CD        27.0870   -1.9880   -3.7910 C.2    32  GLU32       0.3649
     36  OE1       27.9920   -2.5950   -3.2630 O.co2  32  GLU32      -0.2457
     37  OE2       26.4490   -1.0130   -3.3680 O.co2  32  GLU32      -0.2457
     38  N         30.9510   -2.5830   -5.5630 N.am   33  ILE33      -0.1980
     39  CA        32.1280   -2.4860   -4.7050 C.3    33  ILE33       0.1595
     40  C         32.8750   -1.1820   -5.0110 C.2    33  ILE33       0.2287
     41  O         33.3150   -0.4910   -4.1470 O.2    33  ILE33      -0.2864
     42  CB        33.0670   -3.7510   -4.8890 C.3    33  ILE33       0.0276
     43  CG1       32.3400   -5.0420   -4.6500 C.3    33  ILE33       0.0022
     44  CG2       34.4170   -3.5870   -4.1580 C.3    33  ILE33       0.0022
     45  CD1       31.7720   -5.4870   -3.3360 C.3    33  ILE33       0.0001
     46  N         31.5850    1.6480   -6.3340 N.3    35  TYR35      -0.1227
     47  CA        30.7510    2.7390   -5.8400 C.3    35  TYR35       0.1736
     48  C         31.0090    2.8940   -4.2860 C.2    35  TYR35       0.2595
     49  O         31.1970    4.0180   -3.8490 O.2    35  TYR35      -0.2718
     50  CB        29.2720    2.3900   -6.0510 C.3    35  TYR35       0.0548
     51  CG        28.2580    3.2700   -5.3750 C.ar   35  TYR35      -0.0200
     52  CD1       27.5910    2.8700   -4.1900 C.ar   35  TYR35      -0.0009
     53  CD2       27.9360    4.5080   -5.9220 C.ar   35  TYR35      -0.0009
     54  CE1       26.6480    3.7190   -3.5890 C.ar   35  TYR35       0.0417
     55  CE2       26.9940    5.3320   -5.3500 C.ar   35  TYR35       0.0417
     56  CZ        26.3640    4.9370   -4.1780 C.ar   35  TYR35       0.1957
     57  OH        25.3900    5.8200   -3.7040 O.3    35  TYR35      -0.2866
     58  N         30.9100    1.7580   -3.6480 N.am   36  PHE36      -0.1976
     59  CA        31.1880    1.7810   -2.1140 C.3    36  PHE36       0.1639
     60  C         32.4940    2.4790   -1.8470 C.2    36  PHE36       0.2290
     61  O         32.5970    3.3830   -0.9500 O.2    36  PHE36      -0.2864
     62  CB        31.0560    0.3530   -1.5770 C.3    36  PHE36       0.0560
     63  CG        31.5700    0.2290   -0.1340 C.ar   36  PHE36      -0.0200
     64  CD1       32.8380   -0.3360    0.0370 C.ar   36  PHE36      -0.0042
     65  CD2       30.8470    0.7580    0.9210 C.ar   36  PHE36      -0.0042
     66  CE1       33.3820   -0.4400    1.3450 C.ar   36  PHE36      -0.0003
     67  CE2       31.3870    0.6560    2.2320 C.ar   36  PHE36      -0.0003
     68  CZ        32.6180    0.0720    2.4050 C.ar   36  PHE36      -0.0000
     69  N         32.6370   -7.9130   11.0340 N.3    58  THR58      -0.1218
     70  CA        32.9460   -7.3220    9.7200 C.3    58  THR58       0.1862
     71  C         34.4320   -7.0830    9.5510 C.2    58  THR58       0.2287
     72  O         35.0110   -7.4760    8.5260 O.2    58  THR58      -0.2866
     73  CB        32.0230   -6.1320    9.3260 C.3    58  THR58       0.1770
     74  OG1       30.6680   -6.7730    9.2600 O.3    58  THR58      -0.2211
     75  CG2       32.3510   -5.5880    7.9120 C.3    58  THR58       0.0375
     76  N         29.3520    0.9450    7.9490 N.3   112  ILE112     -0.1245
     77  CA        29.4880   -0.0210    6.8470 C.3   112  ILE112      0.1561
     78  C         29.0700   -1.4280    7.0890 C.2   112  ILE112      0.2260
     79  O         29.2690   -2.2890    6.1880 O.2   112  ILE112     -0.2867
     80  CB        30.8900    0.1680    6.1340 C.3   112  ILE112      0.0252
     81  CG1       32.0210   -0.4470    7.0030 C.3   112  ILE112      0.0019
     82  CG2       31.0940    1.6460    5.7340 C.3   112  ILE112      0.0019
     83  CD1       33.3760   -0.7580    6.3380 C.3   112  ILE112      0.0001
     84  N         24.0250   -2.6780   11.9130 N.3   118  TYR118     -0.1241
     85  CA        22.9230   -2.0150   11.1940 C.3   118  TYR118      0.1605
     86  C         21.5920   -1.9800   11.9460 C.2   118  TYR118      0.2264
     87  O         20.9510   -0.9120   12.0030 O.2   118  TYR118     -0.2867
     88  CB        22.6800   -2.6740    9.8030 C.3   118  TYR118      0.0534
     89  CG        23.7040   -2.5210    8.7160 C.ar  118  TYR118     -0.0201
     90  CD1       24.2720   -1.2770    8.3690 C.ar  118  TYR118     -0.0009
     91  CD2       23.9670   -3.6140    7.8540 C.ar  118  TYR118     -0.0009
     92  CE1       25.1880   -1.1550    7.3500 C.ar  118  TYR118      0.0417
     93  CE2       24.8720   -3.4940    6.8130 C.ar  118  TYR118      0.0417
     94  CZ        25.4380   -2.2570    6.5200 C.ar  118  TYR118      0.1957
     95  OH        26.2630   -2.1520    5.4470 O.3   118  TYR118     -0.2866
     96  N         21.7410    0.3200   -1.6220 N.3   133  THR133     -0.1218
     97  CA        21.7780   -0.2110   -3.0760 C.3   133  THR133      0.1862
     98  C         20.6650   -1.2430   -3.0950 C.2   133  THR133      0.2287
     99  O         20.7120   -2.2570   -2.3520 O.2   133  THR133     -0.2866
    100  CB        23.1790   -0.8230   -3.3940 C.3   133  THR133      0.1770
    101  OG1       24.1950    0.2330   -3.2520 O.3   133  THR133     -0.2211
    102  CG2       23.1700   -1.3180   -4.8990 C.3   133  THR133      0.0375
@<TRIPOS>BOND
     1    29    30    1
     2    30    33    1
     3    30    31    1
     4    46    47    1
     5    50    47    1
     6    50    51    1
     7    33    34    1
     8    53    51   ar
     9    53    55   ar
    10    47    48    1
    11    31    38   am
    12    31    32    2
    13    38    39    1
    14    51    52   ar
    15    55    56   ar
    16    34    35    1
    17    40    39    1
    18    40    41    2
    19   102   100    1
    20    42    39    1
    21    42    43    1
    22    42    44    1
    23    43    45    1
    24    48    49    2
    25    48    58   am
    26    52    54   ar
    27    56    57    1
    28    56    54   ar
    29    35    37   ar
    30    35    36   ar
    31    58    59    1
    32   100   101    1
    33   100    97    1
    34    98    97    1
    35    98    99    2
    36    97    96    1
    37    59    60    1
    38    59    62    1
    39    60    61    2
    40    62    63    1
    41    20    17    1
    42    24    23    2
    43    17    18    1
    44    17    16    1
    45    28    27    1
    46    63    64   ar
    47    63    65   ar
    48    23    22    1
    49    64    66   ar
    50    18    19    2
    51    25    22    1
    52    25    26    1
    53    27    26    1
    54     8     6    1
    55    12    11    2
    56    16    11   am
    57    22    21    1
    58    65    67   ar
    59    11    10    1
    60    66    68   ar
    61     6     5    1
    62    67    68   ar
    63    10     9    1
    64    10    13    1
    65     9     3   am
    66     5     2    1
    67     5     7    1
    68     2     3    1
    69     2     1    1
    70     3     4    2
    71    14    13    1
    72    13    15    1
    73    95    94    1
    74    82    80    1
    75    80    77    1
    76    80    81    1
    77    79    78    2
    78    83    81    1
    79    94    93   ar
    80    94    92   ar
    81    93    91   ar
    82    77    78    1
    83    77    76    1
    84    92    90   ar
    85    91    89   ar
    86    75    73    1
    87    90    89   ar
    88    72    71    2
    89    89    88    1
    90    74    73    1
    91    73    70    1
    92    71    70    1
    93    70    69    1
    94    88    85    1
    95    85    84    1
    96    85    86    1
    97    86    87    2
