@<TRIPOS>MOLECULE
tmp/1m79B01.pdb
 128 120 0 0 0
SMALL
GASTEIGER

@<TRIPOS>ATOM
      1  N          6.9880   28.5700   17.0550 N.3     9  ILE9       -0.1231
      2  CA         6.2760   29.7210   17.6460 C.3     9  ILE9        0.1692
      3  C          6.6110   30.9300   16.7670 C.2     9  ILE9        0.2592
      4  O          7.7700   31.1620   16.4230 O.2     9  ILE9       -0.2718
      5  CB         6.6210   29.8830   19.1370 C.3     9  ILE9        0.0266
      6  CG1        5.7190   31.0270   19.7020 C.3     9  ILE9        0.0019
      7  CG2        8.1240   30.0920   19.4260 C.3     9  ILE9        0.0020
      8  CD1        5.7830   31.2210   21.2430 C.3     9  ILE9        0.0001
      9  N          5.5200   31.6130   16.3740 N.am   10  VAL10      -0.1966
     10  CA         5.6870   32.7490   15.4190 C.3    10  VAL10       0.1727
     11  C          4.4740   33.6810   15.5550 C.2    10  VAL10       0.2616
     12  O          3.4120   33.2290   15.9840 O.2    10  VAL10      -0.2715
     13  CB         5.7900   32.1200   14.0040 C.3    10  VAL10       0.0290
     14  CG1        4.4800   31.3670   13.6160 C.3    10  VAL10       0.0023
     15  CG2        6.1480   33.1510   12.9180 C.3    10  VAL10       0.0023
     16  N          4.6690   34.8950   15.1110 N.am   11  ALA11      -0.1977
     17  CA         3.6460   35.9620   15.0620 C.3    11  ALA11       0.1597
     18  C          3.5340   36.4260   13.6010 C.2    11  ALA11       0.2287
     19  O          4.5330   36.7750   12.9470 O.2    11  ALA11      -0.2864
     20  CB         4.0770   37.1120   15.9700 C.3    11  ALA11       0.0319
     21  N         14.6240   42.2400    7.5560 N.3    23  GLY23      -0.1225
     22  CA        15.2390   41.5990    8.6960 C.3    23  GLY23       0.1811
     23  C         14.6680   41.9110   10.0430 C.2    23  GLY23       0.2280
     24  O         15.2310   41.4370   11.0780 O.2    23  GLY23      -0.2866
     25  N         10.8880   42.5820   12.5570 N.3    25  MET25      -0.1245
     26  CA         9.4140   42.3150   12.6450 C.3    25  MET25       0.1570
     27  C          8.7990   43.7170   12.4630 C.2    25  MET25       0.2261
     28  O          9.3170   44.6910   13.0390 O.2    25  MET25      -0.2867
     29  CB         9.1000   41.7130   13.9960 C.3    25  MET25       0.0387
     30  CG         9.5080   40.2510   14.0220 C.3    25  MET25       0.0595
     31  SD         9.4750   39.6460   15.7390 S.3    25  MET25      -0.1393
     32  CE         7.6890   39.8220   16.0530 C.3    25  MET25       0.0692
     33  N          2.5260   40.6930   23.4260 N.3    32  GLU32      -0.1231
     34  CA         2.9800   39.5330   22.5980 C.3    32  GLU32       0.1699
     35  C          4.4010   39.1380   22.9310 C.2    32  GLU32       0.2592
     36  O          4.6730   37.9550   23.1030 O.2    32  GLU32      -0.2718
     37  CB         2.7780   39.8960   21.1520 C.3    32  GLU32       0.0402
     38  CG         2.4300   38.6920   20.2520 C.3    32  GLU32       0.1161
     39  CD         3.5800   37.7480   19.9640 C.2    32  GLU32       0.3649
     40  OE1        4.7230   38.1520   19.7570 O.co2  32  GLU32      -0.2457
     41  OE2        3.2080   36.5600   19.9100 O.co2  32  GLU32      -0.2457
     42  N          5.2860   40.1210   23.0910 N.am   33  ILE33      -0.1980
     43  CA         6.6780   39.7650   23.5120 C.3    33  ILE33       0.1595
     44  C          6.6900   39.0730   24.8510 C.2    33  ILE33       0.2287
     45  O          7.4960   38.1460   25.0860 O.2    33  ILE33      -0.2864
     46  CB         7.5470   41.0600   23.4940 C.3    33  ILE33       0.0276
     47  CG1        7.6960   41.5800   22.0600 C.3    33  ILE33       0.0022
     48  CG2        8.9670   40.7920   24.1340 C.3    33  ILE33       0.0022
     49  CD1        8.2620   43.0210   21.9790 C.3    33  ILE33       0.0001
     50  N          4.2730   37.2260   26.1750 N.3    35  TYR35      -0.1227
     51  CA         3.7600   35.8340   25.9720 C.3    35  TYR35       0.1736
     52  C          4.9150   34.9840   25.4200 C.2    35  TYR35       0.2595
     53  O          5.0850   33.8430   25.8700 O.2    35  TYR35      -0.2718
     54  CB         2.6240   35.9210   24.9470 C.3    35  TYR35       0.0548
     55  CG         2.0900   34.5810   24.4450 C.ar   35  TYR35      -0.0200
     56  CD1        2.4840   34.0930   23.1990 C.ar   35  TYR35      -0.0009
     57  CD2        1.1670   33.8750   25.1970 C.ar   35  TYR35      -0.0009
     58  CE1        1.9330   32.8970   22.6990 C.ar   35  TYR35       0.0417
     59  CE2        0.6220   32.6610   24.7620 C.ar   35  TYR35       0.0417
     60  CZ         1.0530   32.1730   23.5170 C.ar   35  TYR35       0.1957
     61  OH         0.5030   31.0040   23.0840 O.3    35  TYR35      -0.2866
     62  N          5.6270   35.5500   24.4110 N.am   36  PHE36      -0.1976
     63  CA         6.7870   34.7790   23.8600 C.3    36  PHE36       0.1639
     64  C          7.7310   34.3570   24.9910 C.2    36  PHE36       0.2290
     65  O          8.1690   33.2000   25.0350 O.2    36  PHE36      -0.2864
     66  CB         7.4690   35.5690   22.7530 C.3    36  PHE36       0.0560
     67  CG         8.7700   34.9890   22.2550 C.ar   36  PHE36      -0.0200
     68  CD1        9.9860   35.4900   22.7330 C.ar   36  PHE36      -0.0042
     69  CD2        8.7520   33.8820   21.4150 C.ar   36  PHE36      -0.0042
     70  CE1       11.1820   34.9080   22.3140 C.ar   36  PHE36      -0.0003
     71  CE2        9.9520   33.3010   20.9930 C.ar   36  PHE36      -0.0003
     72  CZ        11.1610   33.8490   21.4520 C.ar   36  PHE36      -0.0000
     73  N         19.0010   35.5470   12.6800 N.3    58  THR58      -0.1218
     74  CA        18.1830   35.9610   13.8690 C.3    58  THR58       0.1862
     75  C         19.1020   36.1900   15.0440 C.2    58  THR58       0.2287
     76  O         18.9570   37.2210   15.7530 O.2    58  THR58      -0.2866
     77  CB        16.9950   34.9850   14.1460 C.3    58  THR58       0.1770
     78  OG1       16.1530   34.9890   12.9760 O.3    58  THR58      -0.2211
     79  CG2       16.2380   35.2770   15.4630 C.3    58  THR58       0.0375
     80  N         21.0420   39.4330   14.9210 N.3    61  SER61      -0.1202
     81  CA        20.1070   40.5320   15.1060 C.3    61  SER61       0.2020
     82  C         19.8580   40.9060   16.5400 C.2    61  SER61       0.2618
     83  O         19.1950   41.9600   16.8010 O.2    61  SER61      -0.2717
     84  CB        18.7760   40.2700   14.3490 C.3    61  SER61       0.2103
     85  OG        19.0560   40.3860   12.9550 O.3    61  SER61      -0.2182
     86  N         20.2760   40.0860   17.4880 N.am   62  ILE62      -0.1979
     87  CA        20.0260   40.4290   18.9220 C.3    62  ILE62       0.1595
     88  C         21.2570   41.2380   19.3750 C.2    62  ILE62       0.2287
     89  O         22.3800   40.7010   19.2340 O.2    62  ILE62      -0.2864
     90  CB        19.9330   39.1170   19.8000 C.3    62  ILE62       0.0276
     91  CG1       18.8590   38.1340   19.2190 C.3    62  ILE62       0.0022
     92  CG2       19.5260   39.5220   21.2490 C.3    62  ILE62       0.0022
     93  CD1       18.9960   36.6690   19.7400 C.3    62  ILE62       0.0001
     94  N         19.4010   34.4840   24.9540 N.3    69  LEU69      -0.1245
     95  CA        18.0570   34.7530   25.6000 C.3    69  LEU69       0.1561
     96  C         18.1320   33.9750   26.9020 C.2    69  LEU69       0.2260
     97  O         18.4960   32.7880   26.9020 O.2    69  LEU69      -0.2867
     98  CB        16.9930   34.2260   24.6160 C.3    69  LEU69       0.0270
     99  CG        16.9780   34.8110   23.2020 C.3    69  LEU69       0.0019
    100  CD1       15.7630   34.2110   22.4170 C.3    69  LEU69       0.0001
    101  CD2       16.8030   36.3230   23.1530 C.3    69  LEU69       0.0001
    102  N         12.2320   29.3550   17.0280 N.3   112  ILE112     -0.1245
    103  CA        11.8690   30.7520   17.1160 C.3   112  ILE112      0.1561
    104  C         12.1080   31.6300   15.9240 C.2   112  ILE112      0.2260
    105  O         11.7770   32.8520   15.9880 O.2   112  ILE112     -0.2867
    106  CB        12.4200   31.3870   18.4680 C.3   112  ILE112      0.0252
    107  CG1       14.0110   31.4420   18.3720 C.3   112  ILE112      0.0019
    108  CG2       12.0120   30.4730   19.6800 C.3   112  ILE112      0.0019
    109  CD1       14.6550   32.3480   19.4820 C.3   112  ILE112      0.0001
    110  N         11.9810   28.3580    9.6400 N.3   118  TYR118     -0.1241
    111  CA        10.5620   27.9140    9.6790 C.3   118  TYR118      0.1605
    112  C         10.1850   27.0970    8.4400 C.2   118  TYR118      0.2264
    113  O          9.5360   26.0570    8.5210 O.2   118  TYR118     -0.2867
    114  CB         9.6150   29.1100    9.7350 C.3   118  TYR118      0.0534
    115  CG         9.5950   29.9470   10.9800 C.ar  118  TYR118     -0.0201
    116  CD1        9.4980   29.3880   12.2570 C.ar  118  TYR118     -0.0009
    117  CD2        9.4930   31.3480   10.8720 C.ar  118  TYR118     -0.0009
    118  CE1        9.3780   30.1640   13.4010 C.ar  118  TYR118      0.0417
    119  CE2        9.4000   32.1550   11.9990 C.ar  118  TYR118      0.0417
    120  CZ         9.2870   31.5410   13.2720 C.ar  118  TYR118      0.1957
    121  OH         9.1370   32.3360   14.3540 O.3   118  TYR118     -0.2866
    122  N          0.6490   33.4500   16.5700 N.3   133  THR133     -0.1218
    123  CA        -0.1600   34.6260   17.0810 C.3   133  THR133      0.1862
    124  C         -0.7350   35.2190   15.7870 C.2   133  THR133      0.2287
    125  O          0.0580   35.6610   14.9310 O.2   133  THR133     -0.2866
    126  CB         0.7080   35.6790   17.8400 C.3   133  THR133      0.1770
    127  OG1        1.2170   34.9250   19.0060 O.3   133  THR133     -0.2211
    128  CG2       -0.1460   36.9240   18.2700 C.3   133  THR133      0.0375
@<TRIPOS>BOND
     1    21    22    1
     2   112   113    2
     3   112   111    1
     4    22    23    1
     5   110   111    1
     6   111   114    1
     7   114   115    1
     8    23    24    2
     9   117   115   ar
    10   117   119   ar
    11   115   116   ar
    12   119   120   ar
    13   116   118   ar
    14    27    26    1
    15    27    28    2
    16    25    26    1
    17    26    29    1
    18    73    74    1
    19    15    13    1
    20    19    18    2
    21    85    84    1
    22    78    77    1
    23   120   118   ar
    24   120   121    1
    25    18    17    1
    26    14    13    1
    27    74    77    1
    28    74    75    1
    29    29    30    1
    30    13    10    1
    31    30    31    1
    32    77    79    1
    33    84    81    1
    34    80    81    1
    35   125   124    2
    36    75    76    2
    37    17    16    1
    38    17    20    1
    39    81    82    1
    40    16    11   am
    41    10    11    1
    42    10     9    1
    43    11    12    2
    44    31    32    1
    45   124   123    1
    46   104   105    2
    47   104   103    1
    48     9     3   am
    49     4     3    2
    50    82    83    2
    51    82    86   am
    52   122   123    1
    53     3     2    1
    54   102   103    1
    55     1     2    1
    56   123   126    1
    57   103   106    1
    58    86    87    1
    59     2     5    1
    60   126   128    1
    61   126   127    1
    62   107   106    1
    63   107   109    1
    64   106   108    1
    65    87    88    1
    66    87    90    1
    67     5     7    1
    68     5     6    1
    69    91    93    1
    70    91    90    1
    71    89    88    2
    72     6     8    1
    73    40    39   ar
    74    90    92    1
    75    41    39   ar
    76    39    38    1
    77    38    37    1
    78    71    69   ar
    79    71    72   ar
    80    37    34    1
    81    69    67   ar
    82    72    70   ar
    83    49    47    1
    84    47    46    1
    85    67    68   ar
    86    67    66    1
    87    70    68   ar
    88   100    99    1
    89    34    35    1
    90    34    33    1
    91    58    56   ar
    92    58    60   ar
    93    66    63    1
    94    35    42   am
    95    35    36    2
    96    61    60    1
    97    42    43    1
    98   101    99    1
    99    56    55   ar
   100    99    98    1
   101    46    43    1
   102    46    48    1
   103    43    44    1
   104    60    59   ar
   105    63    62    1
   106    63    64    1
   107    62    52   am
   108    55    54    1
   109    55    57   ar
   110    98    95    1
   111    59    57   ar
   112    44    45    2
   113    54    51    1
   114    94    95    1
   115    64    65    2
   116    52    53    2
   117    52    51    1
   118    95    96    1
   119    51    50    1
   120    97    96    2
