@<TRIPOS>MOLECULE
tmp/1m7aA01.pdb
 142 135 0 0 0
SMALL
GASTEIGER

@<TRIPOS>ATOM
      1  N         25.4940    2.8590    4.9680 N.3     9  ILE9       -0.1231
      2  CA        25.6010    2.4680    3.5000 C.3     9  ILE9        0.1692
      3  C         25.5440    0.9580    3.4940 C.2     9  ILE9        0.2592
      4  O         26.2920    0.2620    4.2160 O.2     9  ILE9       -0.2718
      5  CB        26.8220    3.0950    2.8230 C.3     9  ILE9        0.0266
      6  CG1       26.9940    2.6240    1.3610 C.3     9  ILE9        0.0019
      7  CG2       28.1890    2.7820    3.6320 C.3     9  ILE9        0.0020
      8  CD1       27.8640    3.5550    0.4510 C.3     9  ILE9        0.0001
      9  N         24.6360    0.3680    2.7120 N.am   10  VAL10      -0.1966
     10  CA        24.4470   -1.0940    2.6200 C.3    10  VAL10       0.1727
     11  C         23.8960   -1.5110    1.2400 C.2    10  VAL10       0.2616
     12  O         23.3130   -0.6350    0.5650 O.2    10  VAL10      -0.2715
     13  CB        23.4340   -1.4720    3.7520 C.3    10  VAL10       0.0290
     14  CG1       22.0700   -0.7520    3.5850 C.3    10  VAL10       0.0023
     15  CG2       23.1720   -2.9730    3.8150 C.3    10  VAL10       0.0023
     16  N         24.1420   -2.7630    0.8790 N.am   11  ALA11      -0.1977
     17  CA        23.5770   -3.3250   -0.3980 C.3    11  ALA11       0.1597
     18  C         22.6050   -4.4270    0.0210 C.2    11  ALA11       0.2287
     19  O         22.9300   -5.3150    0.8230 O.2    11  ALA11      -0.2864
     20  CB        24.6540   -3.8610   -1.3100 C.3    11  ALA11       0.0319
     21  N         29.0440  -12.1010    1.9120 N.3    25  MET25      -0.1245
     22  CA        28.0450  -11.4490    1.0040 C.3    25  MET25       0.1570
     23  C         27.6290  -12.5160   -0.0390 C.2    25  MET25       0.2261
     24  O         28.4660  -13.2660   -0.5420 O.2    25  MET25      -0.2867
     25  CB        28.5150  -10.1580    0.4180 C.3    25  MET25       0.0387
     26  CG        28.7140   -9.0970    1.4770 C.3    25  MET25       0.0595
     27  SD        29.3880   -7.6190    0.6700 S.3    25  MET25      -0.1393
     28  CE        27.8380   -6.9860   -0.0820 C.3    25  MET25       0.0692
     29  N         29.4390   -2.3270   -7.8910 N.3    32  GLU32      -0.1231
     30  CA        28.8910   -1.8620   -6.5610 C.3    32  GLU32       0.1699
     31  C         30.0490   -1.6810   -5.5840 C.2    32  GLU32       0.2592
     32  O         30.0160   -0.6580   -4.8770 O.2    32  GLU32      -0.2718
     33  CB        27.9530   -2.9640   -6.0640 C.3    32  GLU32       0.0402
     34  CG        26.7800   -2.5340   -5.1920 C.3    32  GLU32       0.1161
     35  CD        27.1600   -2.0080   -3.8360 C.2    32  GLU32       0.3649
     36  OE1       28.0500   -2.6270   -3.2130 O.co2  32  GLU32      -0.2457
     37  OE2       26.5200   -1.0320   -3.4120 O.co2  32  GLU32      -0.2457
     38  N         30.9830   -2.6060   -5.5570 N.am   33  ILE33      -0.1980
     39  CA        32.1780   -2.4960   -4.6980 C.3    33  ILE33       0.1595
     40  C         32.9200   -1.1920   -5.0310 C.2    33  ILE33       0.2287
     41  O         33.3680   -0.5120   -4.1210 O.2    33  ILE33      -0.2864
     42  CB        33.1330   -3.7470   -4.7950 C.3    33  ILE33       0.0276
     43  CG1       32.3770   -5.0490   -4.5420 C.3    33  ILE33       0.0022
     44  CG2       34.4050   -3.5950   -3.9420 C.3    33  ILE33       0.0022
     45  CD1       31.6810   -5.3260   -3.2360 C.3    33  ILE33       0.0001
     46  N         31.6390    1.5710   -6.3320 N.3    35  TYR35      -0.1227
     47  CA        30.8050    2.6800   -5.8490 C.3    35  TYR35       0.1736
     48  C         31.0550    2.9090   -4.3190 C.2    35  TYR35       0.2595
     49  O         31.2220    4.0360   -3.8850 O.2    35  TYR35      -0.2718
     50  CB        29.3200    2.2820   -6.0900 C.3    35  TYR35       0.0548
     51  CG        28.3060    3.1220   -5.3790 C.ar   35  TYR35      -0.0200
     52  CD1       27.6590    2.6880   -4.1900 C.ar   35  TYR35      -0.0009
     53  CD2       28.0090    4.3900   -5.8940 C.ar   35  TYR35      -0.0009
     54  CE1       26.7260    3.5520   -3.5640 C.ar   35  TYR35       0.0417
     55  CE2       27.0810    5.1980   -5.3050 C.ar   35  TYR35       0.0417
     56  CZ        26.4690    4.7840   -4.1220 C.ar   35  TYR35       0.1957
     57  OH        25.5380    5.6990   -3.6490 O.3    35  TYR35      -0.2866
     58  N         30.9650    1.8150   -3.6190 N.am   36  PHE36      -0.1976
     59  CA        31.1880    1.7770   -2.1310 C.3    36  PHE36       0.1639
     60  C         32.5590    2.4570   -1.8720 C.2    36  PHE36       0.2290
     61  O         32.6220    3.3210   -1.0070 O.2    36  PHE36      -0.2864
     62  CB        31.0990    0.3490   -1.6010 C.3    36  PHE36       0.0560
     63  CG        31.6040    0.2130   -0.1500 C.ar   36  PHE36      -0.0200
     64  CD1       32.9020   -0.2460    0.0800 C.ar   36  PHE36      -0.0042
     65  CD2       30.8300    0.7030    0.9050 C.ar   36  PHE36      -0.0042
     66  CE1       33.4260   -0.3130    1.3870 C.ar   36  PHE36      -0.0003
     67  CE2       31.3300    0.6250    2.2200 C.ar   36  PHE36      -0.0003
     68  CZ        32.6220    0.1070    2.4710 C.ar   36  PHE36      -0.0000
     69  N         32.7020   -7.9430   10.9670 N.3    58  THR58      -0.1218
     70  CA        32.9690   -7.4350    9.5980 C.3    58  THR58       0.1862
     71  C         34.4660   -7.1550    9.4280 C.2    58  THR58       0.2287
     72  O         35.0420   -7.5200    8.3940 O.2    58  THR58      -0.2866
     73  CB        32.0610   -6.2470    9.1730 C.3    58  THR58       0.1770
     74  OG1       30.6930   -6.8220    9.1410 O.3    58  THR58      -0.2211
     75  CG2       32.3190   -5.7010    7.7260 C.3    58  THR58       0.0375
     76  N         36.4260  -10.2440    8.8710 N.3    61  SER61      -0.1202
     77  CA        36.0870  -10.8540    7.5520 C.3    61  SER61       0.2020
     78  C         36.8860  -10.2710    6.4320 C.2    61  SER61       0.2619
     79  O         37.0590  -10.9680    5.4030 O.2    61  SER61      -0.2717
     80  CB        34.6100  -10.8990    7.3370 C.3    61  SER61       0.2103
     81  OG        34.0990   -9.6650    6.8660 O.3    61  SER61      -0.2182
     82  N         37.5240   -9.1390    6.6060 N.am   62  ILE62      -0.1966
     83  CA        38.4280   -8.5310    5.5900 C.3    62  ILE62       0.1712
     84  C         39.8050   -9.1930    5.8240 C.2    62  ILE62       0.2458
     85  O         40.3290   -9.2300    6.9600 O.2    62  ILE62      -0.2730
     86  CB        38.4880   -6.9880    5.8000 C.3    62  ILE62       0.0289
     87  CG1       37.0340   -6.3840    5.7040 C.3    62  ILE62       0.0022
     88  CG2       39.4960   -6.2700    4.8760 C.3    62  ILE62       0.0023
     89  CD1       36.9860   -4.8960    6.2440 C.3    62  ILE62       0.0001
     90  N         40.3910   -9.7550    4.7630 N.am   63  PRO63      -0.2727
     91  CA        41.7130  -10.4040    4.8440 C.3    63  PRO63       0.1402
     92  C         42.6980   -9.4440    5.4770 C.2    63  PRO63       0.2269
     93  O         42.7220   -8.2380    5.1040 O.2    63  PRO63      -0.2865
     94  CB        41.9960  -10.7800    3.3730 C.3    63  PRO63       0.0296
     95  CG        40.6000  -10.9620    2.7960 C.3    63  PRO63       0.0237
     96  CD        39.8480   -9.7330    3.3750 C.3    63  PRO63       0.0939
     97  N         40.9420   -0.3780    5.7180 N.3    69  LEU69      -0.1245
     98  CA        40.6010    0.1530    4.3390 C.3    69  LEU69       0.1561
     99  C         41.3230    1.4650    4.1830 C.2    69  LEU69       0.2260
    100  O         41.2410    2.3990    5.0030 O.2    69  LEU69      -0.2867
    101  CB        39.0770    0.2300    4.3250 C.3    69  LEU69       0.0270
    102  CG        38.2560   -0.9880    4.5930 C.3    69  LEU69       0.0019
    103  CD1       36.7620   -0.5360    4.5170 C.3    69  LEU69       0.0001
    104  CD2       38.5310   -2.1100    3.6350 C.3    69  LEU69       0.0001
    105  N         40.8050    6.0370    4.6160 N.3    72  ARG72      -0.1245
    106  CA        39.6720    6.3300    5.5500 C.3    72  ARG72       0.1563
    107  C         40.0630    5.9590    6.9630 C.2    72  ARG72       0.2260
    108  O         40.8230    4.9980    7.1750 O.2    72  ARG72      -0.2867
    109  CB        38.4370    5.4990    5.1740 C.3    72  ARG72       0.0307
    110  CG        37.7870    5.9290    3.8630 C.3    72  ARG72       0.0489
    111  CD        37.1220    4.7400    3.1890 C.3    72  ARG72       0.2205
    112  NE        38.1230    3.9050    2.5340 N.pl3  72  ARG72      -0.0865
    113  CZ        37.8740    2.8590    1.7570 C.cat  72  ARG72       0.5346
    114  NH1       36.6610    2.3930    1.4780 N.pl3  72  ARG72       0.1354
    115  NH2       38.9450    2.2200    1.1910 N.pl3  72  ARG72       0.1354
    116  N         29.3090    0.9530    7.9670 N.3   112  ILE112     -0.1245
    117  CA        29.4650   -0.0100    6.8640 C.3   112  ILE112      0.1561
    118  C         29.0910   -1.4420    7.1360 C.2   112  ILE112      0.2260
    119  O         29.2990   -2.3010    6.2300 O.2   112  ILE112     -0.2867
    120  CB        30.8510    0.1820    6.1500 C.3   112  ILE112      0.0252
    121  CG1       31.9640   -0.4080    7.0680 C.3   112  ILE112      0.0019
    122  CG2       31.0690    1.6600    5.7400 C.3   112  ILE112      0.0019
    123  CD1       33.2390   -0.9110    6.3440 C.3   112  ILE112      0.0001
    124  N         23.9920   -2.6390   11.9340 N.3   118  TYR118     -0.1241
    125  CA        22.8940   -1.9800   11.1780 C.3   118  TYR118      0.1605
    126  C         21.5430   -1.9380   11.8790 C.2   118  TYR118      0.2264
    127  O         20.9140   -0.8710   11.9790 O.2   118  TYR118     -0.2867
    128  CB        22.6590   -2.6810    9.8290 C.3   118  TYR118      0.0534
    129  CG        23.6810   -2.5210    8.7300 C.ar  118  TYR118     -0.0201
    130  CD1       24.2350   -1.2750    8.3940 C.ar  118  TYR118     -0.0009
    131  CD2       23.9440   -3.6130    7.9140 C.ar  118  TYR118     -0.0009
    132  CE1       25.1190   -1.1560    7.3430 C.ar  118  TYR118      0.0417
    133  CE2       24.8260   -3.5090    6.8480 C.ar  118  TYR118      0.0417
    134  CZ        25.3580   -2.2780    6.5390 C.ar  118  TYR118      0.1957
    135  OH        26.1990   -2.1930    5.4570 O.3   118  TYR118     -0.2866
    136  N         21.7620    0.2830   -1.6410 N.3   133  THR133     -0.1218
    137  CA        21.8080   -0.2260   -3.0690 C.3   133  THR133      0.1862
    138  C         20.6810   -1.2770   -3.1670 C.2   133  THR133      0.2287
    139  O         20.7760   -2.2970   -2.4630 O.2   133  THR133     -0.2866
    140  CB        23.1950   -0.9110   -3.3780 C.3   133  THR133      0.1770
    141  OG1       24.1580    0.1780   -3.3200 O.3   133  THR133     -0.2211
    142  CG2       23.1670   -1.4090   -4.8690 C.3   133  THR133      0.0375
@<TRIPOS>BOND
     1    29    30    1
     2    30    33    1
     3    30    31    1
     4    46    47    1
     5    50    47    1
     6    50    51    1
     7    33    34    1
     8    53    51   ar
     9    53    55   ar
    10    47    48    1
    11    31    38   am
    12    31    32    2
    13    38    39    1
    14    51    52   ar
    15    55    56   ar
    16    34    35    1
    17    40    39    1
    18    40    41    2
    19   142   140    1
    20    42    39    1
    21    42    43    1
    22    42    44    1
    23    43    45    1
    24    48    49    2
    25    48    58   am
    26    52    54   ar
    27    56    57    1
    28    56    54   ar
    29    35    37   ar
    30    35    36   ar
    31    58    59    1
    32   140   141    1
    33   140   137    1
    34   138   137    1
    35   138   139    2
    36   137   136    1
    37    59    60    1
    38    59    62    1
    39    60    61    2
    40    62    63    1
    41    20    17    1
    42    24    23    2
    43    17    18    1
    44    17    16    1
    45    63    64   ar
    46    63    65   ar
    47    28    27    1
    48    23    22    1
    49    18    19    2
    50    64    66   ar
    51    25    22    1
    52    25    26    1
    53     8     6    1
    54    12    11    2
    55    27    26    1
    56    16    11   am
    57    65    67   ar
    58    22    21    1
    59   115   113    1
    60    11    10    1
    61     6     5    1
    62    66    68   ar
    63   114   113    1
    64   113   112    2
    65    67    68   ar
    66   112   111    1
    67    10     9    1
    68    10    13    1
    69     9     3   am
    70    95    94    1
    71    95    96    1
    72     5     2    1
    73     5     7    1
    74   111   110    1
    75    94    91    1
    76    96    90    1
    77     3     2    1
    78     3     4    2
    79     2     1    1
    80    14    13    1
    81   104   102    1
    82    13    15    1
    83   110   109    1
    84    99    98    1
    85    99   100    2
    86   101    98    1
    87   101   102    1
    88    98    97    1
    89   103   102    1
    90   105   106    1
    91    90    91    1
    92    90    84   am
    93    91    92    1
    94    88    86    1
    95    93    92    2
    96   109   106    1
    97    79    78    2
    98   135   134    1
    99   106   107    1
   100    83    86    1
   101    83    84    1
   102    83    82    1
   103    87    86    1
   104    87    89    1
   105   122   120    1
   106    84    85    2
   107   120   117    1
   108   120   121    1
   109   119   118    2
   110   123   121    1
   111    78    82   am
   112    78    77    1
   113   134   133   ar
   114   134   132   ar
   115   133   131   ar
   116   117   118    1
   117   117   116    1
   118    81    80    1
   119   107   108    2
   120    80    77    1
   121   132   130   ar
   122    77    76    1
   123    75    73    1
   124   131   129   ar
   125   130   129   ar
   126    72    71    2
   127   129   128    1
   128    74    73    1
   129    73    70    1
   130    71    70    1
   131    70    69    1
   132   128   125    1
   133   125   126    1
   134   125   124    1
   135   126   127    2
