@<TRIPOS>MOLECULE
tmp/1m7dA00.pdb
 85 83 0 0 0
SMALL
GASTEIGER

@<TRIPOS>ATOM
      1  N         -9.8440   16.1920   24.2570 N.3    31  HIS31      -0.1241
      2  CA       -10.5080   15.8960   25.5180 C.3    31  HIS31       0.1621
      3  C        -11.9680   15.5070   25.2820 C.2    31  HIS31       0.2264
      4  O        -12.5620   15.8740   24.2720 O.2    31  HIS31      -0.2867
      5  CB       -10.4280   17.1180   26.4330 C.3    31  HIS31       0.0745
      6  CG       -10.9630   16.8820   27.8090 C.ar   31  HIS31       0.0817
      7  ND1      -12.2860   17.0930   28.1400 N.ar   31  HIS31      -0.2268
      8  CD2      -10.3600   16.4350   28.9350 C.ar   31  HIS31       0.1154
      9  CE1      -12.4730   16.7840   29.4120 C.ar   31  HIS31       0.1986
     10  NE2      -11.3200   16.3810   29.9170 N.ar   31  HIS31      -0.2212
     11  N        -14.5280   16.6580   26.4920 N.3    33  ASP33      -0.1239
     12  CA       -15.3610   17.8400   26.3650 C.3    33  ASP33       0.1674
     13  C        -15.1810   18.5540   25.0360 C.2    33  ASP33       0.2266
     14  O        -15.6450   19.6760   24.8690 O.2    33  ASP33      -0.2867
     15  CB       -15.0900   18.8030   27.5200 C.3    33  ASP33       0.1410
     16  CG       -13.7940   19.5820   27.3590 C.2    33  ASP33       0.3668
     17  OD1      -13.4850   20.3660   28.2740 O.co2  33  ASP33      -0.2456
     18  OD2      -13.0870   19.4330   26.3420 O.co2  33  ASP33      -0.2456
     19  N        -12.4500   19.8940   23.6330 N.3    35  ASN35      -0.1240
     20  CA       -11.3820   20.8820   23.4840 C.3    35  ASN35       0.1653
     21  C        -10.0490   20.1480   23.3670 C.2    35  ASN35       0.2266
     22  O         -9.9450   18.9790   23.7410 O.2    35  ASN35      -0.2867
     23  CB       -11.3000   21.8030   24.7060 C.3    35  ASN35       0.1155
     24  CG       -12.5410   22.6410   24.9060 C.2    35  ASN35       0.2627
     25  OD1      -12.8480   23.5170   24.1050 O.2    35  ASN35      -0.2716
     26  ND2      -13.2620   22.3780   25.9940 N.am   35  ASN35      -0.0877
     27  N         -6.2790   20.8280   24.6310 N.3    37  TYR37      -0.1241
     28  CA        -5.4730   21.7300   25.4330 C.3    37  TYR37       0.1605
     29  C         -3.9790   21.7160   25.1470 C.2    37  TYR37       0.2264
     30  O         -3.1860   21.3140   25.9890 O.2    37  TYR37      -0.2867
     31  CB        -5.7310   21.4590   26.9160 C.3    37  TYR37       0.0534
     32  CG        -7.1880   21.6070   27.3050 C.ar   37  TYR37      -0.0201
     33  CD1       -8.0870   20.5460   27.1460 C.ar   37  TYR37      -0.0009
     34  CD2       -7.6810   22.8230   27.7870 C.ar   37  TYR37      -0.0009
     35  CE1       -9.4460   20.6960   27.4560 C.ar   37  TYR37       0.0417
     36  CE2       -9.0360   22.9860   28.1010 C.ar   37  TYR37       0.0417
     37  CZ        -9.9110   21.9190   27.9340 C.ar   37  TYR37       0.1957
     38  OH       -11.2410   22.0720   28.2510 O.3    37  TYR37      -0.2866
     39  N         -5.0060   26.5770   23.8180 N.3    55  LYS55      -0.1245
     40  CA        -5.9780   25.7810   23.0990 C.3    55  LYS55       0.1561
     41  C         -5.7280   25.7750   21.5950 C.2    55  LYS55       0.2260
     42  O         -6.6190   26.0840   20.7940 O.2    55  LYS55      -0.2867
     43  CB        -7.3800   26.2860   23.3860 C.3    55  LYS55       0.0271
     44  CG        -7.9500   25.8450   24.7130 C.3    55  LYS55       0.0035
     45  CD        -9.2500   26.5940   24.9080 C.3    55  LYS55       0.0206
     46  CE       -10.0590   26.0600   26.0390 C.3    55  LYS55       0.1093
     47  NZ       -11.3990   26.6860   25.9550 N.3    55  LYS55      -0.1314
     48  N         -2.4520   20.0390   28.4770 N.3    96  THR96      -0.1203
     49  CA        -3.1390   19.8680   29.7510 C.3    96  THR96       0.1994
     50  C         -4.4320   19.0660   29.5710 C.2    96  THR96       0.2619
     51  O         -5.3780   19.2050   30.3390 O.2    96  THR96      -0.2717
     52  CB        -3.4580   21.2240   30.4160 C.3    96  THR96       0.1784
     53  OG1       -4.1010   22.0880   29.4720 O.3    96  THR96      -0.2211
     54  CG2       -2.1860   21.8760   30.9220 C.3    96  THR96       0.0376
     55  N         -4.4650   18.2340   28.5360 N.am   97  THR97      -0.1938
     56  CA        -5.6110   17.3810   28.3010 C.3    97  THR97       0.2028
     57  C         -5.4930   16.2560   29.3310 C.2    97  THR97       0.2642
     58  O         -6.4680   15.9100   29.9960 O.2    97  THR97      -0.2714
     59  CB        -5.5880   16.8280   26.8690 C.3    97  THR97       0.1808
     60  OG1       -5.9640   17.8760   25.9640 O.3    97  THR97      -0.2208
     61  CG2       -6.5450   15.6470   26.7140 C.3    97  THR97       0.0379
     62  N         -4.2840   15.7160   29.4750 N.am   98  HIS98      -0.1959
     63  CA        -3.9950   14.6480   30.4370 C.3    98  HIS98       0.1787
     64  C         -3.0160   15.2160   31.4680 C.2    98  HIS98       0.2620
     65  O         -2.9070   16.4320   31.6100 O.2    98  HIS98      -0.2715
     66  CB        -3.3340   13.4630   29.7280 C.3    98  HIS98       0.0785
     67  CG        -3.9810   13.0990   28.4300 C.ar   98  HIS98       0.0821
     68  ND1       -5.1990   12.4580   28.3590 N.ar   98  HIS98      -0.2267
     69  CD2       -3.5880   13.3050   27.1500 C.ar   98  HIS98       0.1154
     70  CE1       -5.5290   12.2850   27.0910 C.ar   98  HIS98       0.1986
     71  NE2       -4.5680   12.7910   26.3370 N.ar   98  HIS98      -0.2212
     72  N         -2.3060   14.3520   32.1900 N.am   99  VAL99      -0.1964
     73  CA        -1.3300   14.8490   33.1530 C.3    99  VAL99       0.1712
     74  C         -0.4550   15.7940   32.3320 C.2    99  VAL99       0.2458
     75  O          0.1400   15.3990   31.3290 O.2    99  VAL99      -0.2730
     76  CB        -0.4940   13.7020   33.7510 C.3    99  VAL99       0.0289
     77  CG1        0.6170   14.2620   34.6300 C.3    99  VAL99       0.0023
     78  CG2       -1.3950   12.7970   34.5730 C.3    99  VAL99       0.0023
     79  N         -0.3720   17.0620   32.7460 N.am  100  PRO100     -0.2727
     80  CA         0.4220   18.0720   32.0290 C.3   100  PRO100      0.1402
     81  C          1.8670   17.7000   31.7180 C.2   100  PRO100      0.2269
     82  O          2.6020   17.2370   32.5880 O.2   100  PRO100     -0.2865
     83  CB         0.3330   19.3020   32.9370 C.3   100  PRO100      0.0296
     84  CG        -0.9370   19.0770   33.7240 C.3   100  PRO100      0.0237
     85  CD        -0.8600   17.5950   34.0290 C.3   100  PRO100      0.0939
@<TRIPOS>BOND
     1    42    41    2
     2    41    40    1
     3    40    43    1
     4    40    39    1
     5    21    20    1
     6    21    22    2
     7    43    44    1
     8    20    19    1
     9    20    23    1
    10    25    24    2
    11     1     2    1
    12     4     3    2
    13    27    28    1
    14    23    24    1
    15    44    45    1
    16    14    13    2
    17    24    26   am
    18    45    46    1
    19    13    12    1
    20    29    28    1
    21    29    30    2
    22     3     2    1
    23    28    31    1
    24     2     5    1
    25    47    46    1
    26    60    59    1
    27    71    70   ar
    28    71    69   ar
    29    18    16   ar
    30    12    11    1
    31    12    15    1
    32     5     6    1
    33    61    59    1
    34    59    56    1
    35    31    32    1
    36    70    68   ar
    37    33    32   ar
    38    33    35   ar
    39    69    67   ar
    40    32    34   ar
    41    16    15    1
    42    16    17   ar
    43    35    37   ar
    44    34    36   ar
    45     6     7   ar
    46     6     8   ar
    47    37    36   ar
    48    37    38    1
    49     7     9   ar
    50    56    55    1
    51    56    57    1
    52    68    67   ar
    53    67    66    1
    54    48    49    1
    55    55    50   am
    56     8    10   ar
    57    57    62   am
    58    57    58    2
    59     9    10   ar
    60    53    52    1
    61    62    63    1
    62    50    49    1
    63    50    51    2
    64    66    63    1
    65    49    52    1
    66    52    54    1
    67    63    64    1
    68    75    74    2
    69    64    65    2
    70    64    72   am
    71    81    80    1
    72    81    82    2
    73    80    79    1
    74    80    83    1
    75    72    73    1
    76    74    79   am
    77    74    73    1
    78    79    85    1
    79    83    84    1
    80    73    76    1
    81    84    85    1
    82    76    78    1
    83    76    77    1
