@<TRIPOS>MOLECULE
tmp/1m7dB00.pdb
 104 102 0 0 0
SMALL
GASTEIGER

@<TRIPOS>ATOM
      1  N         -7.0910   27.9150   40.1400 N.3    33  TRP33      -0.1241
      2  CA        -6.2840   26.7890   40.5720 C.3    33  TRP33       0.1605
      3  C         -4.8560   27.3240   40.4980 C.2    33  TRP33       0.2264
      4  O         -4.5660   28.2560   39.7380 O.2    33  TRP33      -0.2867
      5  CB        -6.4020   25.6030   39.6180 C.3    33  TRP33       0.0550
      6  CG        -7.7570   25.0010   39.5000 C.ar   33  TRP33       0.0003
      7  CD1       -8.8710   25.2930   40.2480 C.ar   33  TRP33       0.0946
      8  CD2       -8.1440   23.9700   38.5880 C.ar   33  TRP33       0.0152
      9  NE1       -9.9230   24.5030   39.8540 N.ar   33  TRP33      -0.2442
     10  CE2       -9.5070   23.6810   38.8380 C.ar   33  TRP33       0.0810
     11  CE3       -7.4710   23.2610   37.5800 C.ar   33  TRP33       0.0012
     12  CZ2      -10.2110   22.7100   38.1150 C.ar   33  TRP33       0.0191
     13  CZ3       -8.1700   22.2950   36.8620 C.ar   33  TRP33       0.0001
     14  CH2       -9.5280   22.0300   37.1350 C.ar   33  TRP33       0.0015
     15  N         -0.5830   26.1790   40.3490 N.3    35  GLU35      -0.1245
     16  CA         0.3330   25.1120   39.9690 C.3    35  GLU35       0.1567
     17  C          1.7760   25.3830   40.3590 C.2    35  GLU35       0.2260
     18  O          2.1510   26.5110   40.6600 O.2    35  GLU35      -0.2867
     19  CB         0.3020   24.9440   38.4480 C.3    35  GLU35       0.0388
     20  CG        -1.0820   24.9550   37.8410 C.3    35  GLU35       0.1160
     21  CD        -1.7590   23.6210   37.9540 C.2    35  GLU35       0.3649
     22  OE1       -2.9800   23.5560   37.7300 O.co2  35  GLU35      -0.2457
     23  OE2       -1.0720   22.6280   38.2550 O.co2  35  GLU35      -0.2457
     24  N          5.7460   19.3310   35.2110 N.3    47  TRP47      -0.1241
     25  CA         4.6450   19.7320   36.0740 C.3    47  TRP47       0.1605
     26  C          4.8170   18.9760   37.3800 C.2    47  TRP47       0.2264
     27  O          5.1090   17.7820   37.3700 O.2    47  TRP47      -0.2867
     28  CB         3.3100   19.3640   35.4430 C.3    47  TRP47       0.0550
     29  CG         2.1750   19.5030   36.3910 C.ar   47  TRP47       0.0003
     30  CD1        1.6790   20.6590   36.9150 C.ar   47  TRP47       0.0946
     31  CD2        1.4150   18.4400   36.9700 C.ar   47  TRP47       0.0152
     32  NE1        0.6570   20.3830   37.7850 N.ar   47  TRP47      -0.2442
     33  CE2        0.4740   19.0260   37.8390 C.ar   47  TRP47       0.0810
     34  CE3        1.4400   17.0430   36.8400 C.ar   47  TRP47       0.0012
     35  CZ2       -0.4390   18.2640   38.5780 C.ar   47  TRP47       0.0191
     36  CZ3        0.5320   16.2830   37.5730 C.ar   47  TRP47       0.0001
     37  CH2       -0.3940   16.8960   38.4300 C.ar   47  TRP47       0.0015
     38  N         -0.7190   20.5290   41.6070 N.3    50  GLU50      -0.1245
     39  CA        -1.8070   21.4690   41.4250 C.3    50  GLU50       0.1567
     40  C         -2.7530   21.3630   42.6050 C.2    50  GLU50       0.2260
     41  O         -2.9320   20.2880   43.1740 O.2    50  GLU50      -0.2867
     42  CB        -2.5740   21.1480   40.1520 C.3    50  GLU50       0.0388
     43  CG        -3.9190   21.8380   40.0810 C.3    50  GLU50       0.1160
     44  CD        -4.7500   21.3590   38.9140 C.2    50  GLU50       0.3649
     45  OE1       -4.4590   21.7600   37.7630 O.co2  50  GLU50      -0.2457
     46  OE2       -5.6890   20.5700   39.1550 O.co2  50  GLU50      -0.2457
     47  N         -6.6790   22.8320   43.6310 N.3    52  ARG52      -0.1245
     48  CA        -7.8540   23.5490   43.1450 C.3    52  ARG52       0.1563
     49  C         -8.5410   24.5460   44.0970 C.2    52  ARG52       0.2260
     50  O         -7.8840   25.1540   44.9400 O.2    52  ARG52      -0.2867
     51  CB        -8.8460   22.5290   42.5800 C.3    52  ARG52       0.0307
     52  CG        -8.1530   21.5570   41.6230 C.3    52  ARG52       0.0489
     53  CD        -9.0880   20.8380   40.6650 C.3    52  ARG52       0.2205
     54  NE        -8.3410   19.8990   39.8290 N.pl3  52  ARG52      -0.0865
     55  CZ        -8.8540   19.2030   38.8160 C.cat  52  ARG52       0.5346
     56  NH1       -8.0830   18.3720   38.1240 N.pl3  52  ARG52       0.1354
     57  NH2      -10.1320   19.3380   38.4840 N.pl3  52  ARG52       0.1354
     58  N         -3.3750   17.4700   43.1700 N.3    61  HIS61      -0.1241
     59  CA        -2.9010   16.4550   42.2430 C.3    61  HIS61       0.1621
     60  C         -1.4000   16.5940   42.0750 C.2    61  HIS61       0.2264
     61  O         -0.8900   17.6890   41.8310 O.2    61  HIS61      -0.2867
     62  CB        -3.6090   16.5890   40.8960 C.3    61  HIS61       0.0745
     63  CG        -5.0560   16.2100   40.9420 C.ar   61  HIS61       0.0817
     64  ND1       -6.0740   17.1370   40.8860 N.ar   61  HIS61      -0.2268
     65  CD2       -5.6540   15.0000   41.0710 C.ar   61  HIS61       0.1154
     66  CE1       -7.2380   16.5170   40.9750 C.ar   61  HIS61       0.1986
     67  NE2       -7.0110   15.2200   41.0890 N.ar   61  HIS61      -0.2212
     68  N         -3.6180   28.6320   37.2410 N.3   101  GLY101     -0.1210
     69  CA        -4.3910   27.7520   36.3840 C.3   101  GLY101      0.1956
     70  C         -5.3560   28.6920   35.6900 C.2   101  GLY101      0.2612
     71  O         -6.3880   29.0550   36.2360 O.2   101  GLY101     -0.2717
     72  N         -5.0070   29.1110   34.4860 N.am  102  GLY102     -0.1942
     73  CA        -5.8500   30.0420   33.7590 C.3   102  GLY102      0.2014
     74  C         -7.2160   29.5250   33.3630 C.2   102  GLY102      0.2639
     75  O         -7.4140   28.3250   33.1450 O.2   102  GLY102     -0.2714
     76  N         -8.1640   30.4540   33.2630 N.am  103  ALA103     -0.1963
     77  CA        -9.5300   30.1250   32.8740 C.3   103  ALA103      0.1728
     78  C         -9.5230   29.6130   31.4410 C.2   103  ALA103      0.2616
     79  O        -10.3930   28.8370   31.0510 O.2   103  ALA103     -0.2715
     80  CB       -10.4150   31.3640   32.9760 C.3   103  ALA103      0.0334
     81  N         -8.5310   30.0530   30.6690 N.am  104  VAL104     -0.1963
     82  CA        -8.3770   29.6620   29.2660 C.3   104  VAL104      0.1727
     83  C         -7.8340   28.2370   29.0520 C.2   104  VAL104      0.2617
     84  O         -7.5980   27.8170   27.9180 O.2   104  VAL104     -0.2715
     85  CB        -7.4730   30.6710   28.5210 C.3   104  VAL104      0.0290
     86  CG1       -8.1500   32.0340   28.4830 C.3   104  VAL104      0.0023
     87  CG2       -6.1110   30.7750   29.2180 C.3   104  VAL104      0.0023
     88  N         -7.6380   27.5000   30.1410 N.am  105  GLY105     -0.1940
     89  CA        -7.1590   26.1280   30.0380 C.3   105  GLY105      0.2014
     90  C         -5.6600   25.8620   30.0870 C.2   105  GLY105      0.2639
     91  O         -5.2200   24.7330   29.8700 O.2   105  GLY105     -0.2714
     92  N         -4.8730   26.8900   30.3730 N.am  106  ALA106     -0.1963
     93  CA        -3.4270   26.7450   30.4510 C.3   106  ALA106      0.1728
     94  C         -2.8820   27.5750   31.6040 C.2   106  ALA106      0.2616
     95  O         -3.5480   28.4880   32.0860 O.2   106  ALA106     -0.2715
     96  CB        -2.7910   27.1970   29.1500 C.3   106  ALA106      0.0334
     97  N         -1.6740   27.2430   32.0460 N.am  107  MET107     -0.1977
     98  CA        -1.0160   27.9750   33.1100 C.3   107  MET107      0.1605
     99  C         -0.6450   29.3200   32.4750 C.2   107  MET107      0.2287
    100  O          0.3090   29.4110   31.7030 O.2   107  MET107     -0.2864
    101  CB         0.2110   27.1780   33.5610 C.3   107  MET107      0.0413
    102  CG        -0.1720   25.8040   34.1320 C.3   107  MET107      0.0598
    103  SD         1.1810   24.6350   34.4890 S.3   107  MET107     -0.1393
    104  CE         0.3790   23.0490   34.1320 C.3   107  MET107      0.0692
@<TRIPOS>BOND
     1    84    83    2
     2    86    85    1
     3    85    87    1
     4    85    82    1
     5    83    82    1
     6    83    88   am
     7    96    93    1
     8    82    81    1
     9    91    90    2
    10    89    90    1
    11    89    88    1
    12    90    92   am
    13    92    93    1
    14    93    94    1
    15    81    78   am
    16    79    78    2
    17    78    77    1
    18    94    97   am
    19    94    95    2
    20   100    99    2
    21    97    98    1
    22    99    98    1
    23    77    80    1
    24    77    76    1
    25    98   101    1
    26    75    74    2
    27    76    74   am
    28    74    73    1
    29   101   102    1
    30    73    72    1
    31   104   103    1
    32   102   103    1
    33    72    70   am
    34    24    25    1
    35    28    25    1
    36    28    29    1
    37    70    71    2
    38    70    69    1
    39    25    26    1
    40    69    68    1
    41    29    30   ar
    42    29    31   ar
    43    34    31   ar
    44    34    36   ar
    45    13    14   ar
    46    13    11   ar
    47    30    32   ar
    48    31    33   ar
    49    14    12   ar
    50    27    26    2
    51    36    37   ar
    52    11     8   ar
    53    22    21   ar
    54    45    44   ar
    55    32    33   ar
    56    33    35   ar
    57    20    21    1
    58    20    19    1
    59    21    23   ar
    60    12    10   ar
    61    56    55    1
    62    37    35   ar
    63    19    16    1
    64    57    55    1
    65     8    10   ar
    66     8     6   ar
    67    55    54    2
    68    10     9   ar
    69    44    46   ar
    70    44    43    1
    71     6     5    1
    72     6     7   ar
    73     5     2    1
    74     4     3    2
    75    54    53    1
    76     9     7   ar
    77    16    15    1
    78    16    17    1
    79    43    42    1
    80     1     2    1
    81    42    39    1
    82    17    18    2
    83     3     2    1
    84    53    52    1
    85    64    63   ar
    86    64    66   ar
    87    62    63    1
    88    62    59    1
    89    63    65   ar
    90    66    67   ar
    91    65    67   ar
    92    39    38    1
    93    39    40    1
    94    52    51    1
    95    61    60    2
    96    60    59    1
    97    59    58    1
    98    51    48    1
    99    40    41    2
   100    48    47    1
   101    48    49    1
   102    49    50    2
