@<TRIPOS>MOLECULE
tmp/1m7eC00.pdb
 199 191 0 0 0
SMALL
GASTEIGER

@<TRIPOS>ATOM
      1  N         30.6460   43.7590   24.7280 N.3    32  ALA32      -0.1231
      2  CA        31.2870   44.3480   25.8920 C.3    32  ALA32       0.1694
      3  C         32.4970   45.2110   25.5700 C.2    32  ALA32       0.2591
      4  O         32.9030   46.0370   26.3820 O.2    32  ALA32      -0.2718
      5  CB        31.6950   43.2510   26.8510 C.3    32  ALA32       0.0304
      6  N         33.0760   45.0170   24.3920 N.am   33  ARG33      -0.1980
      7  CA        34.2660   45.7600   24.0040 C.3    33  ARG33       0.1597
      8  C         34.2250   46.1890   22.5430 C.2    33  ARG33       0.2287
      9  O         33.3460   45.7790   21.7930 O.2    33  ARG33      -0.2864
     10  CB        35.4880   44.8780   24.2350 C.3    33  ARG33       0.0334
     11  CG        35.6870   44.4480   25.6850 C.3    33  ARG33       0.0492
     12  CD        36.4360   43.1170   25.7810 C.3    33  ARG33       0.2205
     13  NE        35.5500   41.9870   25.5070 N.pl3  33  ARG33      -0.0865
     14  CZ        34.8470   41.3410   26.4380 C.cat  33  ARG33       0.5346
     15  NH1       34.9280   41.7050   27.7190 N.pl3  33  ARG33       0.1354
     16  NH2       34.0460   40.3370   26.0910 N.pl3  33  ARG33       0.1354
     17  N         36.5170   49.2760   19.8380 N.3    35  ASP35      -0.1239
     18  CA        36.7820   50.6620   19.4800 C.3    35  ASP35       0.1674
     19  C         35.7770   51.1520   18.4380 C.2    35  ASP35       0.2266
     20  O         35.1630   52.2090   18.6010 O.2    35  ASP35      -0.2867
     21  CB        38.2010   50.8010   18.9350 C.3    35  ASP35       0.1410
     22  CG        39.2390   50.8880   20.0370 C.2    35  ASP35       0.3668
     23  OD1       40.4470   50.7950   19.7320 O.co2  35  ASP35      -0.2456
     24  OD2       38.8520   51.0600   21.2110 O.co2  35  ASP35      -0.2456
     25  N         32.7100   48.4700   39.4880 N.3    87  VAL87      -0.1231
     26  CA        33.8730   48.1910   38.6480 C.3    87  VAL87       0.1692
     27  C         33.7460   46.8850   37.8520 C.2    87  VAL87       0.2592
     28  O         34.1100   46.8260   36.6770 O.2    87  VAL87      -0.2718
     29  CB        35.1690   48.1250   39.4940 C.3    87  VAL87       0.0266
     30  CG1       36.3240   47.6580   38.6270 C.3    87  VAL87       0.0020
     31  CG2       35.4720   49.5000   40.1080 C.3    87  VAL87       0.0020
     32  N         33.2180   45.8450   38.4850 N.am   88  ASN88      -0.1960
     33  CA        33.0750   44.5550   37.8200 C.3    88  ASN88       0.1819
     34  C         31.9380   44.4960   36.7980 C.2    88  ASN88       0.2621
     35  O         31.5760   43.4190   36.3180 O.2    88  ASN88      -0.2715
     36  CB        32.9020   43.4540   38.8680 C.3    88  ASN88       0.1195
     37  CG        31.6470   43.6280   39.6860 C.2    88  ASN88       0.2630
     38  OD1       30.5790   43.1460   39.3070 O.2    88  ASN88      -0.2716
     39  ND2       31.7620   44.3400   40.8110 N.am   88  ASN88      -0.0877
     40  N         31.3790   45.6530   36.4640 N.am   89  LYS89      -0.1963
     41  CA        30.3030   45.7200   35.4830 C.3    89  LYS89       0.1728
     42  C         30.6840   46.6080   34.3060 C.2    89  LYS89       0.2616
     43  O         29.9510   46.6890   33.3180 O.2    89  LYS89      -0.2715
     44  CB        29.0280   46.2390   36.1300 C.3    89  LYS89       0.0311
     45  CG        28.4240   45.2710   37.1120 C.3    89  LYS89       0.0038
     46  CD        28.0110   43.9880   36.4150 C.3    89  LYS89       0.0206
     47  CE        26.6100   43.5890   36.8570 C.3    89  LYS89       0.1093
     48  NZ        25.6650   44.7440   36.7240 N.3    89  LYS89      -0.1314
     49  N         31.8250   47.2790   34.4250 N.am   90  ILE90      -0.1963
     50  CA        32.3340   48.1490   33.3760 C.3    90  ILE90       0.1727
     51  C         33.3550   47.3130   32.6140 C.2    90  ILE90       0.2617
     52  O         34.4440   47.0340   33.1160 O.2    90  ILE90      -0.2715
     53  CB        33.0340   49.3790   33.9650 C.3    90  ILE90       0.0290
     54  CG1       32.0830   50.1180   34.9040 C.3    90  ILE90       0.0022
     55  CG2       33.4970   50.2920   32.8460 C.3    90  ILE90       0.0023
     56  CD1       32.7060   51.3320   35.5770 C.3    90  ILE90       0.0001
     57  N         33.0040   46.9170   31.3980 N.am   91  SER91      -0.1936
     58  CA        33.8720   46.0710   30.5940 C.3    91  SER91       0.2055
     59  C         34.8540   46.7760   29.6820 C.2    91  SER91       0.2643
     60  O         35.9360   46.2550   29.4100 O.2    91  SER91      -0.2714
     61  CB        33.0110   45.1400   29.7510 C.3    91  SER91       0.2130
     62  OG        31.9720   45.8680   29.1290 O.3    91  SER91      -0.2179
     63  N         34.4930   47.9600   29.2070 N.am   92  PHE92      -0.1959
     64  CA        35.3580   48.6620   28.2690 C.3    92  PHE92       0.1771
     65  C         35.3140   50.1680   28.4530 C.2    92  PHE92       0.2619
     66  O         34.2530   50.7500   28.6600 O.2    92  PHE92      -0.2715
     67  CB        34.9110   48.3070   26.8440 C.3    92  PHE92       0.0574
     68  CG        35.8420   48.7760   25.7630 C.ar   92  PHE92      -0.0200
     69  CD1       36.9740   48.0400   25.4360 C.ar   92  PHE92      -0.0042
     70  CD2       35.5670   49.9320   25.0430 C.ar   92  PHE92      -0.0042
     71  CE1       37.8160   48.4450   24.4040 C.ar   92  PHE92      -0.0003
     72  CE2       36.4030   50.3460   24.0090 C.ar   92  PHE92      -0.0003
     73  CZ        37.5310   49.5960   23.6890 C.ar   92  PHE92      -0.0000
     74  N         36.4790   50.7940   28.3810 N.am   93  ILE93      -0.1977
     75  CA        36.5780   52.2390   28.4930 C.3    93  ILE93       0.1596
     76  C         36.9490   52.6680   27.0780 C.2    93  ILE93       0.2287
     77  O         37.9600   52.2300   26.5350 O.2    93  ILE93      -0.2864
     78  CB        37.6830   52.6400   29.4830 C.3    93  ILE93       0.0276
     79  CG1       37.3600   52.0840   30.8640 C.3    93  ILE93       0.0022
     80  CG2       37.8330   54.1460   29.5490 C.3    93  ILE93       0.0022
     81  CD1       36.0510   52.6080   31.4520 C.3    93  ILE93       0.0001
     82  N         37.9810   55.5200   24.3180 N.3    95  ARG95      -0.1245
     83  CA        38.6140   56.8090   24.1670 C.3    95  ARG95       0.1563
     84  C         37.9720   57.3650   22.8950 C.2    95  ARG95       0.2260
     85  O         37.7120   56.6180   21.9580 O.2    95  ARG95      -0.2867
     86  CB        40.1270   56.5940   24.0070 C.3    95  ARG95       0.0307
     87  CG        41.0000   57.8530   24.1140 C.3    95  ARG95       0.0489
     88  CD        42.0070   57.8210   25.2920 C.3    95  ARG95       0.2205
     89  NE        42.4940   56.4820   25.6280 N.pl3  95  ARG95      -0.0865
     90  CZ        43.4650   56.2330   26.5060 C.cat  95  ARG95       0.5346
     91  NH1       44.0740   57.2310   27.1310 N.pl3  95  ARG95       0.1354
     92  NH2       43.7930   54.9830   26.8000 N.pl3  95  ARG95       0.1354
     93  N         38.7490   59.4850   19.9360 N.3    97  VAL97      -0.1245
     94  CA        39.8350   60.1470   19.2200 C.3    97  VAL97       0.1561
     95  C         39.4420   61.4130   18.4760 C.2    97  VAL97       0.2260
     96  O         40.3080   62.1460   18.0000 O.2    97  VAL97      -0.2867
     97  CB        40.5060   59.1890   18.2080 C.3    97  VAL97       0.0252
     98  CG1       40.9240   57.9120   18.9150 C.3    97  VAL97       0.0019
     99  CG2       39.5620   58.8760   17.0660 C.3    97  VAL97       0.0019
    100  N         27.3640   46.7600   32.0810 N.3   108  GLY108     -0.1210
    101  CA        26.2170   45.8740   32.1140 C.3   108  GLY108      0.1956
    102  C         26.7090   44.4440   32.0740 C.2   108  GLY108      0.2612
    103  O         27.8800   44.1940   31.7920 O.2   108  GLY108     -0.2717
    104  N         25.8230   43.5020   32.3690 N.am  109  GLY109     -0.1942
    105  CA        26.2090   42.1050   32.3410 C.3   109  GLY109      0.2014
    106  C         26.2990   41.6290   30.9060 C.2   109  GLY109      0.2638
    107  O         25.9600   42.3710   29.9790 O.2   109  GLY109     -0.2714
    108  N         26.7480   40.3950   30.7160 N.am  110  GLU110     -0.1977
    109  CA        26.8820   39.8320   29.3800 C.3   110  GLU110      0.1602
    110  C         25.5240   39.8110   28.6670 C.2   110  GLU110      0.2287
    111  O         24.5130   39.4010   29.2460 O.2   110  GLU110     -0.2864
    112  CB        27.4630   38.4200   29.4810 C.3   110  GLU110      0.0415
    113  CG        28.5160   38.3010   30.5890 C.3   110  GLU110      0.1163
    114  CD        29.8220   37.6920   30.1130 C.2   110  GLU110      0.3649
    115  OE1       29.8500   36.4730   29.8270 O.co2 110  GLU110     -0.2457
    116  OE2       30.8200   38.4420   30.0220 O.co2 110  GLU110     -0.2457
    117  N         24.7580   45.0220   27.3060 N.3   113  HIS113     -0.1241
    118  CA        25.7260   46.1100   27.3450 C.3   113  HIS113      0.1621
    119  C         25.1760   47.4640   26.9210 C.2   113  HIS113      0.2264
    120  O         24.3640   47.5610   25.9950 O.2   113  HIS113     -0.2867
    121  CB        26.9180   45.7680   26.4640 C.3   113  HIS113      0.0745
    122  CG        27.4650   44.4020   26.7100 C.ar  113  HIS113      0.0817
    123  ND1       26.9330   43.2770   26.1210 N.ar  113  HIS113     -0.2268
    124  CD2       28.4960   43.9760   27.4780 C.ar  113  HIS113      0.1154
    125  CE1       27.6170   42.2160   26.5090 C.ar  113  HIS113      0.1986
    126  NE2       28.5710   42.6120   27.3330 N.ar  113  HIS113     -0.2212
    127  N         40.0440   59.3380   31.8300 N.3   128  VAL128     -0.1245
    128  CA        40.2460   58.0070   31.2650 C.3   128  VAL128      0.1561
    129  C         41.3820   57.3130   32.0110 C.2   128  VAL128      0.2260
    130  O         41.3270   56.1090   32.2790 O.2   128  VAL128     -0.2867
    131  CB        40.6010   58.0930   29.7560 C.3   128  VAL128      0.0252
    132  CG1       40.9930   56.7140   29.2040 C.3   128  VAL128      0.0019
    133  CG2       39.4180   58.6590   28.9850 C.3   128  VAL128      0.0019
    134  N         40.2610   56.0150   35.4410 N.3   131  LEU131     -0.1231
    135  CA        39.5210   54.7760   35.2920 C.3   131  LEU131      0.1693
    136  C         40.4600   53.6030   35.0360 C.2   131  LEU131      0.2591
    137  O         40.2400   52.4930   35.5360 O.2   131  LEU131     -0.2718
    138  CB        38.4920   54.9090   34.1610 C.3   131  LEU131      0.0284
    139  CG        37.3080   55.8290   34.5010 C.3   131  LEU131      0.0019
    140  CD1       36.4480   56.0460   33.2750 C.3   131  LEU131      0.0001
    141  CD2       36.4860   55.2060   35.6230 C.3   131  LEU131      0.0001
    142  N         41.5120   53.8480   34.2640 N.am  132  LYS132     -0.1980
    143  CA        42.4660   52.7930   33.9620 C.3   132  LYS132      0.1596
    144  C         43.1620   52.3860   35.2580 C.2   132  LYS132      0.2287
    145  O         43.2340   51.1980   35.5930 O.2   132  LYS132     -0.2864
    146  CB        43.4920   53.2820   32.9420 C.3   132  LYS132      0.0298
    147  CG        44.5150   52.2360   32.5500 C.3   132  LYS132      0.0038
    148  CD        45.7680   52.9030   31.9970 C.3   132  LYS132      0.0206
    149  CE        47.0040   52.0170   32.2130 C.3   132  LYS132      0.1093
    150  NZ        48.2950   52.7080   31.8960 N.3   132  LYS132     -0.1314
    151  N         40.8250   50.3620   37.6070 N.3   135  PHE135     -0.1227
    152  CA        40.7130   48.9560   37.2270 C.3   135  PHE135      0.1736
    153  C         41.9980   48.2240   37.5520 C.2   135  PHE135      0.2595
    154  O         41.9810   47.0450   37.9060 O.2   135  PHE135     -0.2718
    155  CB        40.4070   48.8240   35.7340 C.3   135  PHE135      0.0547
    156  CG        39.0720   49.4040   35.3370 C.ar  135  PHE135     -0.0202
    157  CD1       38.7090   49.4840   33.9990 C.ar  135  PHE135     -0.0042
    158  CD2       38.1810   49.8810   36.3000 C.ar  135  PHE135     -0.0042
    159  CE1       37.4820   50.0330   33.6230 C.ar  135  PHE135     -0.0003
    160  CE2       36.9580   50.4300   35.9360 C.ar  135  PHE135     -0.0003
    161  CZ        36.6050   50.5070   34.5930 C.ar  135  PHE135     -0.0000
    162  N         43.1110   48.9380   37.4410 N.am  136  GLN136     -0.1979
    163  CA        44.4150   48.3620   37.7190 C.3   136  GLN136      0.1601
    164  C         44.5820   48.0480   39.2080 C.2   136  GLN136      0.2287
    165  O         45.0330   46.9630   39.5730 O.2   136  GLN136     -0.2864
    166  CB        45.5090   49.3230   37.2610 C.3   136  GLN136      0.0394
    167  CG        46.9200   48.8030   37.4550 C.3   136  GLN136      0.0908
    168  CD        47.9590   49.8510   37.1000 C.2   136  GLN136      0.2608
    169  OE1       48.0120   50.3310   35.9610 O.2   136  GLN136     -0.2717
    170  NE2       48.7870   50.2210   38.0770 N.am  136  GLN136     -0.0878
    171  N         42.1660   47.7160   41.6370 N.3   138  ILE138     -0.1231
    172  CA        41.2050   46.6760   41.9950 C.3   138  ILE138      0.1692
    173  C         41.8220   45.3300   41.6570 C.2   138  ILE138      0.2592
    174  O         41.7810   44.3910   42.4490 O.2   138  ILE138     -0.2718
    175  CB        39.8820   46.8220   41.1910 C.3   138  ILE138      0.0266
    176  CG1       39.1760   48.1350   41.5470 C.3   138  ILE138      0.0019
    177  CG2       38.9750   45.6170   41.4470 C.3   138  ILE138      0.0020
    178  CD1       38.7470   48.2470   42.9880 C.3   138  ILE138      0.0001
    179  N         42.4040   45.2610   40.4670 N.am  139  TYR139     -0.1976
    180  CA        43.0400   44.0470   39.9750 C.3   139  TYR139      0.1639
    181  C         44.2290   43.5900   40.8290 C.2   139  TYR139      0.2290
    182  O         44.2840   42.4330   41.2520 O.2   139  TYR139     -0.2864
    183  CB        43.5060   44.2610   38.5380 C.3   139  TYR139      0.0560
    184  CG        44.1570   43.0440   37.9390 C.ar  139  TYR139     -0.0198
    185  CD1       43.3930   41.9490   37.5280 C.ar  139  TYR139     -0.0009
    186  CD2       45.5420   42.9740   37.8020 C.ar  139  TYR139     -0.0009
    187  CE1       43.9930   40.8060   36.9900 C.ar  139  TYR139      0.0417
    188  CE2       46.1580   41.8390   37.2670 C.ar  139  TYR139      0.0417
    189  CZ        45.3790   40.7580   36.8610 C.ar  139  TYR139      0.1957
    190  OH        45.9850   39.6400   36.3190 O.3   139  TYR139     -0.2866
    191  N         43.1660   42.2220   44.3630 N.3   142  LYS142     -0.1245
    192  CA        42.5850   40.8900   44.2460 C.3   142  LYS142      0.1561
    193  C         43.6410   39.8200   43.9810 C.2   142  LYS142      0.2260
    194  O         43.5940   38.7360   44.5700 O.2   142  LYS142     -0.2867
    195  CB        41.5320   40.8590   43.1340 C.3   142  LYS142      0.0271
    196  CG        40.2500   41.6090   43.4770 C.3   142  LYS142      0.0035
    197  CD        39.2130   41.4840   42.3630 C.3   142  LYS142      0.0206
    198  CE        37.9070   42.1970   42.7250 C.3   142  LYS142      0.1093
    199  NZ        36.8890   42.1070   41.6350 N.3   142  LYS142     -0.1314
@<TRIPOS>BOND
     1    99    97    1
     2    96    95    2
     3    97    98    1
     4    97    94    1
     5    19    20    2
     6    19    18    1
     7    95    94    1
     8    21    18    1
     9    21    22    1
    10    94    93    1
    11    18    17    1
    12    23    22   ar
    13    22    24   ar
    14     9     8    2
    15    85    84    2
    16     8     7    1
    17    84    83    1
    18    73    72   ar
    19    73    71   ar
    20     7    10    1
    21     7     6    1
    22    86    87    1
    23    86    83    1
    24    72    70   ar
    25    87    88    1
    26    83    82    1
    27    10    11    1
    28     6     3   am
    29    71    69   ar
    30     1     2    1
    31    70    68   ar
    32    88    89    1
    33    69    68   ar
    34    13    12    1
    35    13    14    2
    36     3     2    1
    37     3     4    2
    38    89    90    2
    39    11    12    1
    40    68    67    1
    41     2     5    1
    42   120   119    2
    43    16    14    1
    44   123   125   ar
    45   123   122   ar
    46    14    15    1
    47   121   122    1
    48   121   118    1
    49    90    92    1
    50    90    91    1
    51   125   126   ar
    52    77    76    2
    53   122   124   ar
    54    67    64    1
    55   119   118    1
    56    76    75    1
    57   117   118    1
    58   126   124   ar
    59    64    65    1
    60    64    63    1
    61    74    65   am
    62    74    75    1
    63    65    66    2
    64    75    78    1
    65   110   111    2
    66   110   109    1
    67   133   131    1
    68    62    61    1
    69   132   131    1
    70    63    59   am
    71   109   112    1
    72   109   108    1
    73    60    59    2
    74   112   113    1
    75    78    80    1
    76    78    79    1
    77    59    58    1
    78    61    58    1
    79   131   128    1
    80   115   114   ar
    81   107   106    2
    82   116   114   ar
    83   114   113    1
    84    58    57    1
    85   108   106   am
    86    79    81    1
    87   106   105    1
    88   128   127    1
    89   128   129    1
    90    57    51   am
    91   103   102    2
    92   150   149    1
    93   148   149    1
    94   148   147    1
    95   129   130    2
    96   102   101    1
    97   102   104   am
    98   100   101    1
    99   105   104    1
   100   147   146    1
   101    51    52    2
   102    51    50    1
   103    55    53    1
   104   146   143    1
   105   140   139    1
   106    43    42    2
   107    50    53    1
   108    50    49    1
   109   159   157   ar
   110   159   161   ar
   111   143   142    1
   112   143   144    1
   113    53    54    1
   114   157   156   ar
   115   138   139    1
   116   138   135    1
   117   142   136   am
   118    42    49   am
   119    42    41    1
   120   139   141    1
   121   161   160   ar
   122    54    56    1
   123   136   135    1
   124   136   137    2
   125   144   145    2
   126   135   134    1
   127   156   155    1
   128   156   158   ar
   129    41    44    1
   130    41    40    1
   131   155   152    1
   132   160   158   ar
   133   169   168    2
   134    44    45    1
   135    35    34    2
   136   190   189    1
   137    46    47    1
   138    46    45    1
   139    40    34   am
   140    28    27    2
   141    48    47    1
   142    34    33    1
   143   189   187   ar
   144   189   188   ar
   145   187   185   ar
   146   168   167    1
   147   168   170   am
   148   152   153    1
   149   152   151    1
   150   166   167    1
   151   166   163    1
   152   188   186   ar
   153   162   153   am
   154   162   163    1
   155   185   184   ar
   156   153   154    2
   157   163   164    1
   158   186   184   ar
   159    33    32    1
   160    33    36    1
   161    27    32   am
   162    27    26    1
   163   184   183    1
   164   183   180    1
   165    30    29    1
   166    26    25    1
   167    26    29    1
   168    36    37    1
   169   164   165    2
   170    38    37    2
   171    29    31    1
   172    37    39   am
   173   180   179    1
   174   180   181    1
   175   179   173   am
   176   181   182    2
   177   175   177    1
   178   175   176    1
   179   175   172    1
   180   176   178    1
   181   199   198    1
   182   171   172    1
   183   173   172    1
   184   173   174    2
   185   197   198    1
   186   197   196    1
   187   195   196    1
   188   195   192    1
   189   193   192    1
   190   193   194    2
   191   192   191    1
