@<TRIPOS>MOLECULE
tmp/1m7gC01.pdb
 163 157 0 0 0
SMALL
GASTEIGER

@<TRIPOS>ATOM
      1  N         32.9450   86.2090    9.1240 N.3    33  SER33      -0.1202
      2  CA        32.1160   86.7500    8.0470 C.3    33  SER33       0.2020
      3  C         32.7310   86.2690    6.7380 C.2    33  SER33       0.2618
      4  O         33.9510   86.3500    6.5310 O.2    33  SER33      -0.2717
      5  CB        32.1980   88.2460    8.0570 C.3    33  SER33       0.2103
      6  OG        31.1920   88.7850    7.2180 O.3    33  SER33      -0.2182
      7  N         31.8750   85.8090    5.8470 N.am   34  ALA34      -0.1979
      8  CA        32.3040   85.3000    4.5390 C.3    34  ALA34       0.1597
      9  C         33.0890   84.0100    4.5630 C.2    34  ALA34       0.2287
     10  O         33.7590   83.6590    3.5770 O.2    34  ALA34      -0.2864
     11  CB        33.0680   86.3890    3.6940 C.3    34  ALA34       0.0319
     12  N         29.1970   80.3040    5.7230 N.3    37  LYS37      -0.1245
     13  CA        28.1380   79.6770    6.4960 C.3    37  LYS37       0.1561
     14  C         26.8230   79.6000    5.7500 C.2    37  LYS37       0.2260
     15  O         26.2190   78.5180    5.6300 O.2    37  LYS37      -0.2867
     16  CB        27.9500   80.4480    7.7950 C.3    37  LYS37       0.0271
     17  CG        29.1850   80.4010    8.7080 C.3    37  LYS37       0.0035
     18  CD        28.9560   81.2500    9.9710 C.3    37  LYS37       0.0206
     19  CE        28.6350   82.7350    9.6690 C.3    37  LYS37       0.1093
     20  NZ        29.7710   83.4490    9.0560 N.3    37  LYS37      -0.1314
     21  N         21.3400   86.1630    8.7990 N.3    61  GLY61      -0.1225
     22  CA        21.2000   87.5950    9.0020 C.3    61  GLY61       0.1811
     23  C         20.0120   88.2010    8.2900 C.2    61  GLY61       0.2280
     24  O         19.3280   89.0720    8.8390 O.2    61  GLY61      -0.2866
     25  N         18.2490   89.5540   11.4320 N.3    65  ARG65      -0.1245
     26  CA        18.7500   90.8600   11.8540 C.3    65  ARG65       0.1563
     27  C         18.0200   92.1040   11.4220 C.2    65  ARG65       0.2260
     28  O         18.3410   93.1900   11.9090 O.2    65  ARG65      -0.2867
     29  CB        20.2660   90.9750   11.5500 C.3    65  ARG65       0.0307
     30  CG        21.0980   90.5010   12.7890 C.3    65  ARG65       0.0489
     31  CD        22.5510   90.9000   12.6120 C.3    65  ARG65       0.2205
     32  NE        23.4430   90.5800   13.7440 N.pl3  65  ARG65      -0.0865
     33  CZ        23.6400   91.4050   14.7640 C.cat  65  ARG65       0.5346
     34  NH1       22.9890   92.5760   14.8070 N.pl3  65  ARG65       0.1354
     35  NH2       24.5340   91.1130   15.7150 N.pl3  65  ARG65       0.1354
     36  N         26.2740   95.5520   16.8450 N.3    74  PHE74      -0.1241
     37  CA        27.4330   94.6930   16.9340 C.3    74  PHE74       0.1605
     38  C         28.3300   94.8600   18.1380 C.2    74  PHE74       0.2264
     39  O         29.4280   94.3180   18.1900 O.2    74  PHE74      -0.2867
     40  CB        28.2170   94.8080   15.6260 C.3    74  PHE74       0.0534
     41  CG        27.4540   94.2520   14.4920 C.ar   74  PHE74      -0.0203
     42  CD1       27.5350   92.8930   14.1940 C.ar   74  PHE74      -0.0042
     43  CD2       26.5590   95.0440   13.7860 C.ar   74  PHE74      -0.0042
     44  CE1       26.7230   92.3220   13.1920 C.ar   74  PHE74      -0.0003
     45  CE2       25.7300   94.4850   12.7820 C.ar   74  PHE74      -0.0003
     46  CZ        25.8240   93.1140   12.4930 C.ar   74  PHE74      -0.0000
     47  N         25.7710   91.3720   20.4880 N.3    79  ARG79      -0.1245
     48  CA        26.0490   90.0660   19.9000 C.3    79  ARG79       0.1563
     49  C         25.6360   88.9870   20.8700 C.2    79  ARG79       0.2260
     50  O         25.1120   87.9600   20.4470 O.2    79  ARG79      -0.2867
     51  CB        27.5340   89.9220   19.5680 C.3    79  ARG79       0.0307
     52  CG        27.9430   90.8910   18.4550 C.3    79  ARG79       0.0489
     53  CD        29.3510   90.6060   18.0820 C.3    79  ARG79       0.2205
     54  NE        30.0210   91.6440   17.2960 N.pl3  79  ARG79      -0.0865
     55  CZ        30.6140   91.4360   16.1200 C.cat  79  ARG79       0.5346
     56  NH1       30.5550   90.2890   15.4620 N.pl3  79  ARG79       0.1354
     57  NH2       31.4960   92.3380   15.7400 N.pl3  79  ARG79       0.1354
     58  N         21.9850   88.8690   20.4430 N.3    82  ASN82      -0.1225
     59  CA        21.6350   88.3760   19.1200 C.3    82  ASN82       0.1785
     60  C         21.6430   86.8510   19.1510 C.2    82  ASN82       0.2597
     61  O         20.6770   86.1900   18.7440 O.2    82  ASN82      -0.2718
     62  CB        22.6940   88.9020   18.1360 C.3    82  ASN82       0.1169
     63  CG        22.4380   88.4940   16.6950 C.2    82  ASN82       0.2627
     64  OD1       21.3550   88.6980   16.1660 O.2    82  ASN82      -0.2716
     65  ND2       23.4640   87.9390   16.0260 N.am   82  ASN82      -0.0877
     66  N         22.7550   86.3090   19.6460 N.am   83  ILE83      -0.1980
     67  CA        22.9170   84.8750   19.6830 C.3    83  ILE83       0.1595
     68  C         21.9510   84.2060   20.6910 C.2    83  ILE83       0.2287
     69  O         21.4070   83.1260   20.4010 O.2    83  ILE83      -0.2864
     70  CB        24.4230   84.5220   19.9600 C.3    83  ILE83       0.0276
     71  CG1       25.2820   84.9810   18.7580 C.3    83  ILE83       0.0022
     72  CG2       24.5970   83.0100   20.2180 C.3    83  ILE83       0.0022
     73  CD1       24.7690   84.5450   17.3890 C.3    83  ILE83       0.0001
     74  N         23.2080   80.4400   10.6240 N.3   103  SER103     -0.1202
     75  CA        24.4470   80.9150   10.0130 C.3   103  SER103      0.2020
     76  C         24.8360   82.2700   10.5650 C.2   103  SER103      0.2619
     77  O         24.6960   83.2880    9.8840 O.2   103  SER103     -0.2717
     78  CB        24.2820   81.0630    8.4980 C.3   103  SER103      0.2103
     79  OG        24.0930   79.8020    7.9180 O.3   103  SER103     -0.2182
     80  N         25.3500   82.3230   11.7750 N.am  104  PHE104     -0.1961
     81  CA        25.7800   83.5820   12.4090 C.3   104  PHE104      0.1771
     82  C         27.2230   83.4310   12.8480 C.2   104  PHE104      0.2619
     83  O         27.6600   82.3280   13.2280 O.2   104  PHE104     -0.2715
     84  CB        24.8630   83.8910   13.6160 C.3   104  PHE104      0.0574
     85  CG        23.4350   84.0690   13.2080 C.ar  104  PHE104     -0.0200
     86  CD1       22.9830   85.3010   12.7470 C.ar  104  PHE104     -0.0042
     87  CD2       22.5690   82.9610   13.1820 C.ar  104  PHE104     -0.0042
     88  CE1       21.6720   85.4330   12.2520 C.ar  104  PHE104     -0.0003
     89  CE2       21.2560   83.1000   12.6820 C.ar  104  PHE104     -0.0003
     90  CZ        20.8320   84.3530   12.2180 C.ar  104  PHE104     -0.0000
     91  N         27.9710   84.5340   12.8060 N.am  105  ILE105     -0.1963
     92  CA        29.3650   84.4670   13.1760 C.3   105  ILE105      0.1727
     93  C         29.5150   83.8130   14.5210 C.2   105  ILE105      0.2617
     94  O         30.3610   82.9190   14.6610 O.2   105  ILE105     -0.2715
     95  CB        29.9840   85.8470   13.1850 C.3   105  ILE105      0.0290
     96  CG1       29.9670   86.4310   11.7590 C.3   105  ILE105      0.0022
     97  CG2       31.4090   85.7490   13.7250 C.3   105  ILE105      0.0023
     98  CD1       30.5640   87.8210   11.7230 C.3   105  ILE105      0.0001
     99  N         28.6560   84.2210   15.4690 N.am  106  SER106     -0.1936
    100  CA        28.6870   83.7000   16.8630 C.3   106  SER106      0.2040
    101  C         30.1380   83.5770   17.3100 C.2   106  SER106      0.2485
    102  O         30.6290   82.4790   17.6340 O.2   106  SER106     -0.2729
    103  CB        27.9230   82.3660   16.9910 C.3   106  SER106      0.2129
    104  OG        28.1960   81.4480   15.9630 O.3   106  SER106     -0.2179
    105  N         30.8110   84.7220   17.4090 N.am  107  PRO107     -0.2726
    106  CA        32.2230   84.7440   17.7710 C.3   107  PRO107      0.1402
    107  C         32.6360   84.3880   19.1520 C.2   107  PRO107      0.2269
    108  O         33.8100   84.0670   19.3600 O.2   107  PRO107     -0.2865
    109  CB        32.6420   86.1740   17.4060 C.3   107  PRO107      0.0296
    110  CG        31.4800   86.9510   17.7420 C.3   107  PRO107      0.0237
    111  CD        30.2900   86.1030   17.2670 C.3   107  PRO107      0.0939
    112  N         33.3980   94.8070    3.2420 N.3   152  LEU152     -0.1245
    113  CA        33.3360   94.9750    4.6990 C.3   152  LEU152      0.1561
    114  C         34.6980   94.8050    5.3180 C.2   152  LEU152      0.2260
    115  O         35.0630   95.5500    6.2400 O.2   152  LEU152     -0.2867
    116  CB        32.3650   93.9680    5.3010 C.3   152  LEU152      0.0270
    117  CG        30.9630   94.1010    4.7090 C.3   152  LEU152      0.0019
    118  CD1       30.0310   93.0520    5.3290 C.3   152  LEU152      0.0001
    119  CD2       30.4120   95.5210    4.9130 C.3   152  LEU152      0.0001
    120  N         34.4580  100.5460    9.8290 N.3   161  ILE161     -0.1231
    121  CA        33.5560   99.7190   10.6170 C.3   161  ILE161      0.1692
    122  C         34.3550   99.3220   11.8450 C.2   161  ILE161      0.2592
    123  O         35.4490   98.7220   11.7230 O.2   161  ILE161     -0.2718
    124  CB        33.1380   98.4390    9.8810 C.3   161  ILE161      0.0266
    125  CG1       32.3520   98.7710    8.6170 C.3   161  ILE161      0.0019
    126  CG2       32.2800   97.5680   10.8140 C.3   161  ILE161      0.0020
    127  CD1       32.0660   97.5290    7.7610 C.3   161  ILE161      0.0001
    128  N         33.8230   99.6560   13.0150 N.am  162  LYS162     -0.1966
    129  CA        34.5130   99.3250   14.2560 C.3   162  LYS162      0.1728
    130  C         34.2690   97.8760   14.6670 C.2   162  LYS162      0.2616
    131  O         33.2710   97.2550   14.2840 O.2   162  LYS162     -0.2715
    132  CB        34.0190  100.2270   15.3910 C.3   162  LYS162      0.0311
    133  CG        34.2720  101.7070   15.1450 C.3   162  LYS162      0.0038
    134  CD        33.7280  102.5770   16.2790 C.3   162  LYS162      0.0206
    135  CE        32.2050  102.5160   16.3880 C.3   162  LYS162      0.1093
    136  NZ        31.6730  103.4070   17.4770 N.3   162  LYS162     -0.1314
    137  N         35.1810   97.3410   15.4590 N.am  163  GLU163     -0.1963
    138  CA        35.0770   96.0090   16.0360 C.3   163  GLU163      0.1733
    139  C         34.5330   94.9730   15.0930 C.2   163  GLU163      0.2616
    140  O         33.5090   94.3270   15.3510 O.2   163  GLU163     -0.2715
    141  CB        34.2370   96.0290   17.3250 C.3   163  GLU163      0.0429
    142  CG        32.8750   96.6780   17.2630 C.3   163  GLU163      0.1163
    143  CD        32.2590   96.8870   18.6670 C.2   163  GLU163      0.3649
    144  OE1       32.9170   96.5320   19.6890 O.co2 163  GLU163     -0.2457
    145  OE2       31.1210   97.4150   18.7340 O.co2 163  GLU163     -0.2457
    146  N         35.2750   94.7930   14.0130 N.am  164  PHE164     -0.1960
    147  CA        34.8630   93.8370   12.9950 C.3   164  PHE164      0.1771
    148  C         35.5780   92.5180   13.2350 C.2   164  PHE164      0.2620
    149  O         36.8090   92.4560   13.2600 O.2   164  PHE164     -0.2715
    150  CB        35.2620   94.3610   11.6120 C.3   164  PHE164      0.0574
    151  CG        34.6050   93.6120   10.5090 C.ar  164  PHE164     -0.0200
    152  CD1       33.3000   93.9100   10.1120 C.ar  164  PHE164     -0.0042
    153  CD2       35.2630   92.5410    9.8770 C.ar  164  PHE164     -0.0042
    154  CE1       32.6590   93.1540    9.1250 C.ar  164  PHE164     -0.0003
    155  CE2       34.6050   91.7720    8.8670 C.ar  164  PHE164     -0.0003
    156  CZ        33.3140   92.0830    8.5100 C.ar  164  PHE164     -0.0000
    157  N         34.8040   91.4560   13.3840 N.am  165  THR165     -0.1951
    158  CA        35.3380   90.1470   13.7150 C.3   165  THR165      0.1897
    159  C         36.4910   89.7130   12.8220 C.2   165  THR165      0.2313
    160  O         36.3790   89.7470   11.6140 O.2   165  THR165     -0.2863
    161  CB        34.2230   89.1380   13.5860 C.3   165  THR165      0.1794
    162  OG1       33.1150   89.5650   14.3890 O.3   165  THR165     -0.2208
    163  CG2       34.6940   87.7550   14.0280 C.3   165  THR165      0.0378
@<TRIPOS>BOND
     1   112   113    1
     2    10     9    2
     3    11     8    1
     4     8     9    1
     5     8     7    1
     6   113   116    1
     7   113   114    1
     8   117   119    1
     9   117   116    1
    10   117   118    1
    11   114   115    2
    12    15    14    2
    13    12    13    1
    14    14    13    1
    15     7     3   am
    16    13    16    1
    17     4     3    2
    18     3     2    1
    19     6     5    1
    20   127   125    1
    21    16    17    1
    22    79    78    1
    23     2     5    1
    24     2     1    1
    25    23    24    2
    26    23    22    1
    27    78    75    1
    28   156   155   ar
    29   156   154   ar
    30   125   124    1
    31    17    18    1
    32    21    22    1
    33   155   153   ar
    34    20    19    1
    35   154   152   ar
    36    19    18    1
    37   120   121    1
    38   153   151   ar
    39   124   121    1
    40   124   126    1
    41    77    76    2
    42    75    76    1
    43    75    74    1
    44   152   151   ar
    45   151   150    1
    46    76    80   am
    47   121   122    1
    48    27    26    1
    49    27    28    2
    50    25    26    1
    51    29    26    1
    52    29    30    1
    53   150   147    1
    54   160   159    2
    55   123   122    2
    56    98    96    1
    57    96    95    1
    58    80    81    1
    59   122   128   am
    60    90    88   ar
    61    90    89   ar
    62    88    86   ar
    63    81    82    1
    64    81    84    1
    65    46    45   ar
    66    46    44   ar
    67    31    30    1
    68    31    32    1
    69    89    87   ar
    70    86    85   ar
    71    45    43   ar
    72    91    82   am
    73    91    92    1
    74   159   158    1
    75    82    83    2
    76   147   148    1
    77   147   146    1
    78   128   129    1
    79    92    95    1
    80    92    93    1
    81    87    85   ar
    82    95    97    1
    83    44    42   ar
    84    85    84    1
    85   148   149    2
    86   148   157   am
    87   157   158    1
    88   161   158    1
    89   161   163    1
    90   161   162    1
    91    32    33    2
    92    43    41   ar
    93   146   139   am
    94    42    41   ar
    95   129   130    1
    96   129   132    1
    97   131   130    2
    98    41    40    1
    99    93    94    2
   100    93    99   am
   101   130   137   am
   102    33    34    1
   103    33    35    1
   104   139   140    2
   105   139   138    1
   106   133   132    1
   107   133   134    1
   108   137   138    1
   109    56    55    1
   110    99   100    1
   111    40    37    1
   112    57    55    1
   113   104   103    1
   114    65    63   am
   115   138   141    1
   116    55    54    2
   117    64    63    2
   118   134   135    1
   119   135   136    1
   120    63    62    1
   121    36    37    1
   122   100   103    1
   123   100   101    1
   124    37    38    1
   125   142   141    1
   126   142   143    1
   127   111   105    1
   128   111   110    1
   129    54    53    1
   130   101   105   am
   131   101   102    2
   132    73    71    1
   133   109   110    1
   134   109   106    1
   135   105   106    1
   136   106   107    1
   137    53    52    1
   138    62    59    1
   139    38    39    2
   140    52    51    1
   141   143   145   ar
   142   143   144   ar
   143    61    60    2
   144    71    70    1
   145    59    60    1
   146    59    58    1
   147    60    66   am
   148   107   108    2
   149    51    48    1
   150    66    67    1
   151    67    70    1
   152    67    68    1
   153    48    47    1
   154    48    49    1
   155    70    72    1
   156    69    68    2
   157    50    49    2
