@<TRIPOS>MOLECULE
tmp/1m7gC00.pdb
 118 116 0 0 0
SMALL
GASTEIGER

@<TRIPOS>ATOM
      1  N         32.9450   86.2090    9.1240 N.3    33  SER33      -0.1202
      2  CA        32.1160   86.7500    8.0470 C.3    33  SER33       0.2020
      3  C         32.7310   86.2690    6.7380 C.2    33  SER33       0.2619
      4  O         33.9510   86.3500    6.5310 O.2    33  SER33      -0.2717
      5  CB        32.1980   88.2460    8.0570 C.3    33  SER33       0.2103
      6  OG        31.1920   88.7850    7.2180 O.3    33  SER33      -0.2182
      7  N         31.8750   85.8090    5.8470 N.am   34  ALA34      -0.1965
      8  CA        32.3040   85.3000    4.5390 C.3    34  ALA34       0.1728
      9  C         33.0890   84.0100    4.5630 C.2    34  ALA34       0.2617
     10  O         33.7590   83.6590    3.5770 O.2    34  ALA34      -0.2715
     11  CB        33.0680   86.3890    3.6940 C.3    34  ALA34       0.0334
     12  N         33.0350   83.2730    5.6650 N.am   35  SER35      -0.1936
     13  CA        33.6680   81.9630    5.6930 C.3    35  SER35       0.2055
     14  C         32.8300   80.9720    4.8660 C.2    35  SER35       0.2644
     15  O         33.3300   79.9210    4.4690 O.2    35  SER35      -0.2714
     16  CB        33.8230   81.4650    7.1530 C.3    35  SER35       0.2130
     17  OG        32.5680   81.4360    7.8350 O.3    35  SER35      -0.2179
     18  N         31.5670   81.2990    4.6330 N.am   36  GLY36      -0.1939
     19  CA        30.6900   80.5000    3.7940 C.3    36  GLY36       0.2014
     20  C         29.5510   79.8180    4.5320 C.2    36  GLY36       0.2639
     21  O         29.0050   78.8390    3.9960 O.2    36  GLY36      -0.2714
     22  N         29.1970   80.3040    5.7230 N.am   37  LYS37      -0.1963
     23  CA        28.1380   79.6770    6.4960 C.3    37  LYS37       0.1728
     24  C         26.8230   79.6000    5.7500 C.2    37  LYS37       0.2617
     25  O         26.2190   78.5180    5.6300 O.2    37  LYS37      -0.2715
     26  CB        27.9500   80.4480    7.7950 C.3    37  LYS37       0.0311
     27  CG        29.1850   80.4010    8.7080 C.3    37  LYS37       0.0038
     28  CD        28.9560   81.2500    9.9710 C.3    37  LYS37       0.0206
     29  CE        28.6350   82.7350    9.6690 C.3    37  LYS37       0.1093
     30  NZ        29.7710   83.4490    9.0560 N.3    37  LYS37      -0.1314
     31  N         26.3220   80.7460    5.3010 N.am   38  SER38      -0.1936
     32  CA        25.0300   80.6910    4.6570 C.3    38  SER38       0.2055
     33  C         25.0340   79.8370    3.3680 C.2    38  SER38       0.2643
     34  O         24.0370   79.1520    3.0630 O.2    38  SER38      -0.2714
     35  CB        24.5670   82.1070    4.3730 C.3    38  SER38       0.2130
     36  OG        23.2600   82.0880    3.8170 O.3    38  SER38      -0.2179
     37  N         26.1390   79.8770    2.6290 N.am   39  THR39      -0.1950
     38  CA        26.2590   79.0750    1.4120 C.3    39  THR39       0.1897
     39  C         26.1710   77.6000    1.7910 C.2    39  THR39       0.2313
     40  O         25.4720   76.8170    1.1200 O.2    39  THR39      -0.2863
     41  CB        27.5980   79.3770    0.7620 C.3    39  THR39       0.1794
     42  OG1       27.6140   80.7620    0.3990 O.3    39  THR39      -0.2208
     43  CG2       27.8000   78.5420   -0.4980 C.3    39  THR39       0.0378
     44  N         23.2080   80.4400   10.6240 N.3   103  SER103     -0.1217
     45  CA        24.4470   80.9150   10.0130 C.3   103  SER103      0.1889
     46  C         24.8360   82.2700   10.5650 C.2   103  SER103      0.2288
     47  O         24.6960   83.2880    9.8840 O.2   103  SER103     -0.2866
     48  CB        24.2820   81.0630    8.4980 C.3   103  SER103      0.2089
     49  OG        24.0930   79.8020    7.9180 O.3   103  SER103     -0.2183
     50  N         36.4950   87.1810   -0.3900 N.3   147  ARG147     -0.1245
     51  CA        35.0720   86.8930   -0.5870 C.3   147  ARG147      0.1563
     52  C         34.3450   88.1320   -0.0390 C.2   147  ARG147      0.2260
     53  O         33.4290   88.0030    0.7520 O.2   147  ARG147     -0.2867
     54  CB        34.6790   85.6720    0.2410 C.3   147  ARG147      0.0307
     55  CG        35.3710   84.3840   -0.2160 C.3   147  ARG147      0.0489
     56  CD        35.1080   83.2730    0.7500 C.3   147  ARG147      0.2205
     57  NE        35.6830   82.0160    0.3180 N.pl3 147  ARG147     -0.0865
     58  CZ        35.5530   80.8890    0.9990 C.cat 147  ARG147      0.5346
     59  NH1       34.8350   80.9400    2.1600 N.pl3 147  ARG147      0.1354
     60  NH2       36.1240   79.7630    0.5570 N.pl3 147  ARG147      0.1354
     61  N         32.5210   91.0840   -1.5750 N.3   149  PRO149     -0.2116
     62  CA        31.8900   91.9610   -2.5600 C.3   149  PRO149      0.1372
     63  C         31.4190   93.2730   -2.0100 C.2   149  PRO149      0.2244
     64  O         31.4720   94.2830   -2.7100 O.2   149  PRO149     -0.2868
     65  CB        30.7640   91.1030   -3.1460 C.3   149  PRO149      0.0268
     66  CG        30.4390   90.1610   -2.0500 C.3   149  PRO149      0.0207
     67  CD        31.8150   89.8040   -1.5420 C.3   149  PRO149      0.0892
     68  N         36.6030   75.2580    4.9890 N.3   183  ASN183     -0.1225
     69  CA        35.8340   75.6590    3.8310 C.3   183  ASN183      0.1785
     70  C         36.4720   76.5350    2.7810 C.2   183  ASN183      0.2597
     71  O         35.9070   77.5740    2.4020 O.2   183  ASN183     -0.2718
     72  CB        34.5340   76.3210    4.3350 C.3   183  ASN183      0.1169
     73  CG        33.4680   76.3490    3.2880 C.2   183  ASN183      0.2627
     74  OD1       33.2930   75.3940    2.5340 O.2   183  ASN183     -0.2716
     75  ND2       32.6970   77.4590    3.2450 N.am  183  ASN183     -0.0877
     76  N         37.6380   76.0980    2.3130 N.am  184  TYR184     -0.1962
     77  CA        38.3420   76.8020    1.2580 C.3   184  TYR184      0.1771
     78  C         39.0790   75.7040    0.4970 C.2   184  TYR184      0.2619
     79  O         39.4440   74.6830    1.0770 O.2   184  TYR184     -0.2715
     80  CB        39.2750   77.8690    1.8500 C.3   184  TYR184      0.0574
     81  CG        40.2750   77.3890    2.8610 C.ar  184  TYR184     -0.0198
     82  CD1       41.6420   77.3770    2.5780 C.ar  184  TYR184     -0.0009
     83  CD2       39.8630   76.9430    4.1140 C.ar  184  TYR184     -0.0009
     84  CE1       42.5690   76.9260    3.5270 C.ar  184  TYR184      0.0417
     85  CE2       40.7750   76.4900    5.0680 C.ar  184  TYR184      0.0417
     86  CZ        42.1240   76.4800    4.7690 C.ar  184  TYR184      0.1957
     87  OH        43.0030   75.9900    5.7190 O.3   184  TYR184     -0.2866
     88  N         39.2270   75.9000   -0.8120 N.am  185  GLU185     -0.1963
     89  CA        39.8820   74.9120   -1.6750 C.3   185  GLU185      0.1733
     90  C         39.1260   73.5910   -1.5710 C.2   185  GLU185      0.2616
     91  O         39.6780   72.5150   -1.7920 O.2   185  GLU185     -0.2715
     92  CB        41.3500   74.7680   -1.2560 C.3   185  GLU185      0.0429
     93  CG        42.1180   76.0940   -1.3800 C.3   185  GLU185      0.1163
     94  CD        43.5850   75.9800   -1.0310 C.2   185  GLU185      0.3649
     95  OE1       44.2450   75.0620   -1.5560 O.co2 185  GLU185     -0.2457
     96  OE2       44.0900   76.8140   -0.2430 O.co2 185  GLU185     -0.2457
     97  N         37.8390   73.6980   -1.2910 N.am  186  LEU186     -0.1964
     98  CA        36.9480   72.5600   -1.1120 C.3   186  LEU186      0.1713
     99  C         35.5510   72.9860   -1.5650 C.2   186  LEU186      0.2458
    100  O         34.9750   73.9230   -1.0090 O.2   186  LEU186     -0.2730
    101  CB        36.8860   72.2050    0.3860 C.3   186  LEU186      0.0310
    102  CG        35.7410   71.3310    0.9430 C.3   186  LEU186      0.0022
    103  CD1       36.0300   69.8740    0.5890 C.3   186  LEU186      0.0001
    104  CD2       35.5960   71.4810    2.5000 C.3   186  LEU186      0.0001
    105  N         34.9600   72.3090   -2.5550 N.am  187  PRO187     -0.2716
    106  CA        33.6140   72.7130   -2.9830 C.3   187  PRO187      0.1536
    107  C         32.6540   72.5870   -1.8100 C.2   187  PRO187      0.2598
    108  O         32.8690   71.7600   -0.9220 O.2   187  PRO187     -0.2715
    109  CB        33.2610   71.6980   -4.0670 C.3   187  PRO187      0.0310
    110  CG        34.5750   71.2380   -4.5560 C.3   187  PRO187      0.0237
    111  CD        35.4430   71.1580   -3.3340 C.3   187  PRO187      0.0939
    112  N         31.5850   73.3680   -1.8440 N.am  188  VAL188     -0.1978
    113  CA        30.5530   73.3670   -0.8160 C.3   188  VAL188      0.1596
    114  C         29.8600   72.0140   -0.6420 C.2   188  VAL188      0.2287
    115  O         29.5370   71.6120    0.4940 O.2   188  VAL188     -0.2864
    116  CB        29.4960   74.4040   -1.1710 C.3   188  VAL188      0.0276
    117  CG1       28.2330   74.2180   -0.3200 C.3   188  VAL188      0.0022
    118  CG2       30.0860   75.7740   -0.9630 C.3   188  VAL188      0.0022
@<TRIPOS>BOND
     1   110   109    1
     2   110   111    1
     3   109   106    1
     4   111   105    1
     5    65    62    1
     6    65    66    1
     7   106   105    1
     8   106   107    1
     9    64    63    2
    10    62    63    1
    11    62    61    1
    12   105    99   am
    13    66    67    1
    14   112   107   am
    15   112   113    1
    16   107   108    2
    17    91    90    2
    18    89    90    1
    19    89    92    1
    20    89    88    1
    21    61    67    1
    22    90    97   am
    23    99    98    1
    24    99   100    2
    25    95    94   ar
    26    93    92    1
    27    93    94    1
    28    97    98    1
    29   116   118    1
    30   116   113    1
    31   116   117    1
    32    98   101    1
    33    94    96   ar
    34   113   114    1
    35    88    78   am
    36   114   115    2
    37    51    50    1
    38    51    52    1
    39    51    54    1
    40    43    41    1
    41    55    54    1
    42    55    56    1
    43    52    53    2
    44    57    56    1
    45    57    58    2
    46   101   102    1
    47    42    41    1
    48    78    79    2
    49    78    77    1
    50    60    58    1
    51   103   102    1
    52    41    38    1
    53   102   104    1
    54    58    59    1
    55    40    39    2
    56    77    80    1
    57    77    76    1
    58    38    39    1
    59    38    37    1
    60    80    81    1
    61    76    70   am
    62    71    70    2
    63    74    73    2
    64    82    81   ar
    65    82    84   ar
    66    37    33   am
    67    70    69    1
    68    81    83   ar
    69    34    33    2
    70    75    73   am
    71    73    72    1
    72    33    32    1
    73    84    86   ar
    74    10     9    2
    75    11     8    1
    76    19    20    1
    77    19    18    1
    78    36    35    1
    79    69    72    1
    80    69    68    1
    81    21    20    2
    82    83    85   ar
    83    35    32    1
    84    15    14    2
    85    20    22   am
    86     8     9    1
    87     8     7    1
    88     9    12   am
    89    18    14   am
    90    32    31    1
    91    86    85   ar
    92    86    87    1
    93    14    13    1
    94    31    24   am
    95    25    24    2
    96    12    13    1
    97    13    16    1
    98    22    23    1
    99    24    23    1
   100     7     3   am
   101    23    26    1
   102     4     3    2
   103     3     2    1
   104    16    17    1
   105     6     5    1
   106    26    27    1
   107    49    48    1
   108     2     5    1
   109     2     1    1
   110    48    45    1
   111    27    28    1
   112    30    29    1
   113    29    28    1
   114    47    46    2
   115    45    46    1
   116    45    44    1
