@<TRIPOS>MOLECULE
tmp/1m7iA00.pdb
 91 90 0 0 0
SMALL
GASTEIGER

@<TRIPOS>ATOM
      1  N         -9.7380   16.1490   24.7110 N.3    31  HIS31      -0.1226
      2  CA       -10.3680   15.8700   25.9920 C.3    31  HIS31       0.1752
      3  C        -11.8200   15.4640   25.7860 C.2    31  HIS31       0.2597
      4  O        -12.4530   15.8300   24.7900 O.2    31  HIS31      -0.2718
      5  CB       -10.2990   17.1060   26.8980 C.3    31  HIS31       0.0759
      6  CG       -10.7860   16.8640   28.2980 C.ar   31  HIS31       0.0818
      7  ND1      -12.1210   16.7140   28.6100 N.ar   31  HIS31      -0.2268
      8  CD2      -10.1080   16.7240   29.4650 C.ar   31  HIS31       0.1154
      9  CE1      -12.2430   16.4900   29.9070 C.ar   31  HIS31       0.1986
     10  NE2      -11.0370   16.4910   30.4500 N.ar   31  HIS31      -0.2212
     11  N        -12.3340   14.7000   26.7430 N.am   32  SER32      -0.1938
     12  CA       -13.7060   14.2060   26.7250 C.3    32  SER32       0.2055
     13  C        -14.6810   15.3450   26.4480 C.2    32  SER32       0.2643
     14  O        -15.6310   15.1910   25.6720 O.2    32  SER32      -0.2714
     15  CB       -14.0340   13.5670   28.0740 C.3    32  SER32       0.2130
     16  OG       -12.8570   13.0640   28.6940 O.3    32  SER32      -0.2179
     17  N        -14.4420   16.4880   27.0870 N.am   33  ASP33      -0.1971
     18  CA       -15.2960   17.6520   26.8980 C.3    33  ASP33       0.1709
     19  C        -15.0070   18.3090   25.5600 C.2    33  ASP33       0.2293
     20  O        -15.3330   19.4770   25.3560 O.2    33  ASP33      -0.2864
     21  CB       -15.0640   18.6580   28.0130 C.3    33  ASP33       0.1436
     22  CG       -13.6570   19.1880   28.0290 C.2    33  ASP33       0.3671
     23  OD1      -13.2560   19.7480   29.0640 O.co2  33  ASP33      -0.2456
     24  OD2      -12.9480   19.0570   27.0110 O.co2  33  ASP33      -0.2456
     25  N        -12.2640   19.4610   24.2620 N.3    35  ASN35      -0.1240
     26  CA       -11.2510   20.5140   24.2010 C.3    35  ASN35       0.1653
     27  C         -9.8670   19.8920   24.1140 C.2    35  ASN35       0.2266
     28  O         -9.6010   18.8670   24.7430 O.2    35  ASN35      -0.2867
     29  CB       -11.2670   21.3770   25.4590 C.3    35  ASN35       0.1155
     30  CG       -12.4950   22.2250   25.5770 C.2    35  ASN35       0.2627
     31  OD1      -12.6560   23.2210   24.8650 O.2    35  ASN35      -0.2716
     32  ND2      -13.3800   21.8400   26.4920 N.am   35  ASN35      -0.0877
     33  N         -6.3220   20.5880   25.2190 N.3    37  TYR37      -0.1241
     34  CA        -5.5230   21.4580   26.0610 C.3    37  TYR37       0.1605
     35  C         -4.0450   21.4560   25.7310 C.2    37  TYR37       0.2264
     36  O         -3.2330   20.9510   26.5030 O.2    37  TYR37      -0.2867
     37  CB        -5.7270   21.0710   27.5240 C.3    37  TYR37       0.0534
     38  CG        -7.1470   21.2800   27.9890 C.ar   37  TYR37      -0.0201
     39  CD1       -8.1480   20.3600   27.6680 C.ar   37  TYR37      -0.0009
     40  CD2       -7.5090   22.4420   28.6830 C.ar   37  TYR37      -0.0009
     41  CE1       -9.4710   20.5960   28.0200 C.ar   37  TYR37       0.0417
     42  CE2       -8.8300   22.6870   29.0360 C.ar   37  TYR37       0.0417
     43  CZ        -9.8030   21.7630   28.6980 C.ar   37  TYR37       0.1957
     44  OH       -11.1110   22.0180   29.0090 O.3    37  TYR37      -0.2866
     45  N         -4.9300   26.2830   24.3610 N.3    55  LYS55      -0.1245
     46  CA        -5.8790   25.4390   23.6530 C.3    55  LYS55       0.1561
     47  C         -5.6120   25.4720   22.1560 C.2    55  LYS55       0.2260
     48  O         -6.4630   25.8830   21.3580 O.2    55  LYS55      -0.2867
     49  CB        -7.3110   25.8800   23.9230 C.3    55  LYS55       0.0271
     50  CG        -7.8070   25.6040   25.3270 C.3    55  LYS55       0.0035
     51  CD        -9.2590   26.0380   25.4310 C.3    55  LYS55       0.0206
     52  CE        -9.8110   25.8700   26.8260 C.3    55  LYS55       0.1093
     53  NZ       -11.2350   26.3200   26.8780 N.3    55  LYS55      -0.1314
     54  N         -2.4390   19.8640   29.2570 N.3    96  THR96      -0.1203
     55  CA        -3.0970   19.7080   30.5460 C.3    96  THR96       0.1994
     56  C         -4.3690   18.8830   30.4140 C.2    96  THR96       0.2619
     57  O         -5.2430   18.9170   31.2790 O.2    96  THR96      -0.2717
     58  CB        -3.4180   21.0740   31.1790 C.3    96  THR96       0.1784
     59  OG1       -4.0560   21.9140   30.2120 O.3    96  THR96      -0.2211
     60  CG2       -2.1420   21.7360   31.6690 C.3    96  THR96       0.0376
     61  N         -4.4560   18.1400   29.3160 N.am   97  THR97      -0.1938
     62  CA        -5.5830   17.2580   29.0650 C.3    97  THR97       0.2028
     63  C         -5.4740   16.0870   30.0590 C.2    97  THR97       0.2642
     64  O         -6.4840   15.5350   30.5000 O.2    97  THR97      -0.2714
     65  CB        -5.5390   16.7450   27.6170 C.3    97  THR97       0.1808
     66  OG1       -5.8310   17.8290   26.7250 O.3    97  THR97      -0.2208
     67  CG2       -6.5430   15.6420   27.4020 C.3    97  THR97       0.0379
     68  N         -4.2410   15.7310   30.4220 N.am   98  HIS98      -0.1959
     69  CA        -3.9830   14.6470   31.3750 C.3    98  HIS98       0.1787
     70  C         -3.0380   15.1670   32.4480 C.2    98  HIS98       0.2620
     71  O         -3.0910   16.3400   32.8090 O.2    98  HIS98      -0.2715
     72  CB        -3.3430   13.4560   30.6610 C.3    98  HIS98       0.0785
     73  CG        -4.0710   13.0490   29.4190 C.ar   98  HIS98       0.0821
     74  ND1       -5.3580   12.5530   29.4400 N.ar   98  HIS98      -0.2267
     75  CD2       -3.7130   13.1110   28.1140 C.ar   98  HIS98       0.1154
     76  CE1       -5.7620   12.3290   28.2020 C.ar   98  HIS98       0.1986
     77  NE2       -4.7820   12.6590   27.3780 N.ar   98  HIS98      -0.2212
     78  N         -2.1880   14.2990   32.9810 N.am   99  VAL99      -0.1964
     79  CA        -1.2410   14.7710   33.9700 C.3    99  VAL99       0.1712
     80  C         -0.3570   15.7100   33.1720 C.2    99  VAL99       0.2458
     81  O          0.2780   15.3070   32.1940 O.2    99  VAL99      -0.2730
     82  CB        -0.4200   13.6240   34.5710 C.3    99  VAL99       0.0289
     83  CG1        0.8390   14.1760   35.2590 C.3    99  VAL99       0.0023
     84  CG2       -1.2820   12.8730   35.5800 C.3    99  VAL99       0.0023
     85  N         -0.3200   16.9860   33.5680 N.am  100  PRO100     -0.2727
     86  CA         0.4830   18.0000   32.8750 C.3   100  PRO100      0.1402
     87  C          1.9120   17.5780   32.5660 C.2   100  PRO100      0.2269
     88  O          2.6490   17.1560   33.4620 O.2   100  PRO100     -0.2865
     89  CB         0.4450   19.1920   33.8330 C.3   100  PRO100      0.0296
     90  CG        -0.8300   19.0010   34.5770 C.3   100  PRO100      0.0237
     91  CD        -0.8590   17.5160   34.8310 C.3   100  PRO100      0.0939
@<TRIPOS>BOND
     1    48    47    2
     2    47    46    1
     3    46    49    1
     4    46    45    1
     5    49    50    1
     6    27    26    1
     7    27    28    2
     8    26    25    1
     9    26    29    1
    10     1     2    1
    11     4     3    2
    12    31    30    2
    13    33    34    1
    14    50    51    1
    15    20    19    2
    16    51    52    1
    17    29    30    1
    18    19    18    1
    19    30    32   am
    20    14    13    2
    21    35    34    1
    22    35    36    2
    23     3     2    1
    24     3    11   am
    25     2     5    1
    26    34    37    1
    27    13    12    1
    28    13    17   am
    29    12    11    1
    30    12    15    1
    31    66    65    1
    32    52    53    1
    33     5     6    1
    34    18    17    1
    35    18    21    1
    36    24    22   ar
    37    77    75   ar
    38    77    76   ar
    39    67    65    1
    40    37    38    1
    41    65    62    1
    42    39    38   ar
    43    39    41   ar
    44    38    40   ar
    45    21    22    1
    46    41    43   ar
    47    22    23   ar
    48    15    16    1
    49    75    73   ar
    50    76    74   ar
    51     6     7   ar
    52     6     8   ar
    53     7     9   ar
    54    40    42   ar
    55    43    44    1
    56    43    42   ar
    57    62    61    1
    58    62    63    1
    59    54    55    1
    60    61    56   am
    61    73    74   ar
    62    73    72    1
    63     8    10   ar
    64     9    10   ar
    65    63    68   am
    66    63    64    2
    67    59    58    1
    68    56    55    1
    69    56    57    2
    70    68    69    1
    71    55    58    1
    72    72    69    1
    73    58    60    1
    74    69    70    1
    75    81    80    2
    76    70    71    2
    77    70    78   am
    78    87    86    1
    79    87    88    2
    80    86    85    1
    81    86    89    1
    82    78    79    1
    83    80    85   am
    84    80    79    1
    85    85    91    1
    86    89    90    1
    87    79    82    1
    88    82    83    1
    89    82    84    1
    90    90    91    1
