@<TRIPOS>MOLECULE
tmp/1m7iB00.pdb
 132 131 0 0 0
SMALL
GASTEIGER

@<TRIPOS>ATOM
      1  N        -10.2720   32.2280   44.2130 N.3    31  ASN31      -0.1225
      2  CA       -10.9740   31.7520   43.0160 C.3    31  ASN31       0.1785
      3  C        -10.1880   30.8560   42.0760 C.2    31  ASN31       0.2597
      4  O        -10.7560   30.3420   41.1120 O.2    31  ASN31      -0.2718
      5  CB       -11.4880   32.9330   42.1860 C.3    31  ASN31       0.1169
      6  CG       -12.7710   33.5270   42.7320 C.2    31  ASN31       0.2627
      7  OD1      -13.4700   32.9030   43.5340 O.2    31  ASN31      -0.2716
      8  ND2      -13.1010   34.7360   42.2790 N.am   31  ASN31      -0.0877
      9  N         -8.9020   30.6600   42.3380 N.am   32  TYR32      -0.1962
     10  CA        -8.0750   29.8470   41.4480 C.3    32  TYR32       0.1771
     11  C         -7.3320   28.6720   42.0680 C.2    32  TYR32       0.2619
     12  O         -7.0690   28.6350   43.2690 O.2    32  TYR32      -0.2715
     13  CB        -7.0560   30.7470   40.7630 C.3    32  TYR32       0.0574
     14  CG        -7.6850   31.8320   39.9290 C.ar   32  TYR32      -0.0198
     15  CD1       -8.0390   31.6010   38.6020 C.ar   32  TYR32      -0.0009
     16  CD2       -7.9410   33.0930   40.4710 C.ar   32  TYR32      -0.0009
     17  CE1       -8.6310   32.5960   37.8310 C.ar   32  TYR32       0.0417
     18  CE2       -8.5370   34.1000   39.7050 C.ar   32  TYR32       0.0417
     19  CZ        -8.8770   33.8420   38.3840 C.ar   32  TYR32       0.1957
     20  OH        -9.4510   34.8310   37.6150 O.3    32  TYR32      -0.2866
     21  N         -7.0050   27.6990   41.2320 N.am   33  TRP33      -0.1974
     22  CA        -6.2390   26.5620   41.7000 C.3    33  TRP33       0.1640
     23  C         -4.8130   27.0520   41.6040 C.2    33  TRP33       0.2290
     24  O         -4.4960   27.9180   40.7880 O.2    33  TRP33      -0.2864
     25  CB        -6.3770   25.3590   40.7780 C.3    33  TRP33       0.0576
     26  CG        -7.7430   24.7890   40.6650 C.ar   33  TRP33       0.0006
     27  CD1       -8.8330   25.0660   41.4510 C.ar   33  TRP33       0.0946
     28  CD2       -8.1580   23.7770   39.7450 C.ar   33  TRP33       0.0152
     29  NE1       -9.8980   24.2830   41.0750 N.ar   33  TRP33      -0.2442
     30  CE2       -9.5120   23.4810   40.0300 C.ar   33  TRP33       0.0810
     31  CE3       -7.5140   23.0870   38.7080 C.ar   33  TRP33       0.0012
     32  CZ2      -10.2360   22.5220   39.3120 C.ar   33  TRP33       0.0191
     33  CZ3       -8.2310   22.1340   37.9970 C.ar   33  TRP33       0.0001
     34  CH2       -9.5790   21.8600   38.3020 C.ar   33  TRP33       0.0015
     35  N         -0.5570   25.9950   41.4250 N.3    35  GLU35      -0.1245
     36  CA         0.3340   24.9340   41.0040 C.3    35  GLU35       0.1567
     37  C          1.7690   25.0990   41.4480 C.2    35  GLU35       0.2260
     38  O          2.1650   26.1230   41.9910 O.2    35  GLU35      -0.2867
     39  CB         0.3140   24.8450   39.4780 C.3    35  GLU35       0.0388
     40  CG        -1.0760   24.8440   38.8670 C.3    35  GLU35       0.1160
     41  CD        -1.7480   23.5020   38.9710 C.2    35  GLU35       0.3649
     42  OE1       -2.9600   23.4150   38.6660 O.co2  35  GLU35      -0.2457
     43  OE2       -1.0560   22.5330   39.3480 O.co2  35  GLU35      -0.2457
     44  N          5.8230   19.2210   36.1170 N.3    47  TRP47      -0.1241
     45  CA         4.7080   19.5800   36.9900 C.3    47  TRP47       0.1605
     46  C          4.8470   18.7890   38.2710 C.2    47  TRP47       0.2264
     47  O          4.9700   17.5670   38.2290 O.2    47  TRP47      -0.2867
     48  CB         3.3760   19.2160   36.3560 C.3    47  TRP47       0.0550
     49  CG         2.2350   19.4020   37.2980 C.ar   47  TRP47       0.0003
     50  CD1        1.7210   20.5840   37.7290 C.ar   47  TRP47       0.0946
     51  CD2        1.4810   18.3740   37.9480 C.ar   47  TRP47       0.0152
     52  NE1        0.6900   20.3640   38.6070 N.ar   47  TRP47      -0.2442
     53  CE2        0.5190   19.0140   38.7610 C.ar   47  TRP47       0.0810
     54  CE3        1.5230   16.9700   37.9240 C.ar   47  TRP47       0.0012
     55  CZ2       -0.3980   18.3000   39.5490 C.ar   47  TRP47       0.0191
     56  CZ3        0.6130   16.2600   38.7050 C.ar   47  TRP47       0.0001
     57  CH2       -0.3360   16.9300   39.5060 C.ar   47  TRP47       0.0015
     58  N         -0.6050   20.2610   42.6340 N.3    50  GLU50      -0.1245
     59  CA        -1.7020   21.2070   42.4850 C.3    50  GLU50       0.1567
     60  C         -2.6550   21.1730   43.6710 C.2    50  GLU50       0.2260
     61  O         -2.8530   20.1340   44.2960 O.2    50  GLU50      -0.2867
     62  CB        -2.4960   20.8800   41.2220 C.3    50  GLU50       0.0388
     63  CG        -3.8310   21.6100   41.1140 C.3    50  GLU50       0.1160
     64  CD        -4.7180   21.0540   40.0050 C.2    50  GLU50       0.3649
     65  OE1       -4.3010   21.0860   38.8240 O.co2  50  GLU50      -0.2457
     66  OE2       -5.8370   20.5840   40.3200 O.co2  50  GLU50      -0.2457
     67  N         -6.6060   22.7340   44.8800 N.3    52  ARG52      -0.1231
     68  CA        -7.8010   23.3550   44.3370 C.3    52  ARG52       0.1694
     69  C         -8.4870   24.3150   45.2990 C.2    52  ARG52       0.2591
     70  O         -7.8780   24.7640   46.2680 O.2    52  ARG52      -0.2718
     71  CB        -8.7680   22.2680   43.8370 C.3    52  ARG52       0.0321
     72  CG        -8.0860   21.3130   42.8570 C.3    52  ARG52       0.0489
     73  CD        -9.0440   20.4850   42.0080 C.3    52  ARG52       0.2205
     74  NE        -8.3100   19.5480   41.1540 N.pl3  52  ARG52      -0.0865
     75  CZ        -8.8060   18.9660   40.0620 C.cat  52  ARG52       0.5346
     76  NH1       -8.0620   18.1260   39.3500 N.pl3  52  ARG52       0.1354
     77  NH2      -10.0440   19.2310   39.6710 N.pl3  52  ARG52       0.1354
     78  N         -9.7490   24.6290   45.0140 N.am   53  LEU53      -0.1980
     79  CA       -10.5230   25.5670   45.8180 C.3    53  LEU53       0.1596
     80  C        -11.0560   25.0200   47.1420 C.2    53  LEU53       0.2287
     81  O        -10.9180   23.8290   47.4470 O.2    53  LEU53      -0.2864
     82  CB       -11.6800   26.1070   44.9810 C.3    53  LEU53       0.0297
     83  CG       -11.2760   26.6720   43.6160 C.3    53  LEU53       0.0022
     84  CD1      -12.4920   27.2870   42.9340 C.3    53  LEU53       0.0001
     85  CD2      -10.1790   27.7120   43.7920 C.3    53  LEU53       0.0001
     86  N         -3.4400   17.2510   44.2580 N.3    61  HIS61      -0.1241
     87  CA        -3.0140   16.2590   43.2820 C.3    61  HIS61       0.1621
     88  C         -1.5100   16.3970   43.1450 C.2    61  HIS61       0.2264
     89  O         -1.0080   17.4980   42.9170 O.2    61  HIS61      -0.2867
     90  CB        -3.6980   16.5020   41.9360 C.3    61  HIS61       0.0745
     91  CG        -5.1670   16.2130   41.9510 C.ar   61  HIS61       0.0817
     92  ND1       -5.6790   14.9910   42.3300 N.ar   61  HIS61      -0.2268
     93  CD2       -6.2330   16.9890   41.6400 C.ar   61  HIS61       0.1154
     94  CE1       -6.9990   15.0250   42.2540 C.ar   61  HIS61       0.1986
     95  NE2       -7.3600   16.2260   41.8370 N.ar   61  HIS61      -0.2212
     96  N         -3.6950   28.4030   38.2270 N.3   101  GLY101     -0.1210
     97  CA        -4.4950   27.5070   37.4150 C.3   101  GLY101      0.1956
     98  C         -5.4660   28.4190   36.6980 C.2   101  GLY101      0.2612
     99  O         -6.5380   28.7320   37.2010 O.2   101  GLY101     -0.2717
    100  N         -5.0740   28.8680   35.5180 N.am  102  GLY102     -0.1942
    101  CA        -5.9050   29.7770   34.7590 C.3   102  GLY102      0.2014
    102  C         -7.2910   29.3160   34.3530 C.2   102  GLY102      0.2639
    103  O         -7.5730   28.1260   34.1830 O.2   102  GLY102     -0.2714
    104  N         -8.1590   30.3060   34.1860 N.am  103  ALA103     -0.1963
    105  CA        -9.5350   30.0820   33.7820 C.3   103  ALA103      0.1728
    106  C         -9.5680   29.4330   32.4000 C.2   103  ALA103      0.2616
    107  O        -10.4930   28.6840   32.0860 O.2   103  ALA103     -0.2715
    108  CB       -10.2810   31.4170   33.7570 C.3   103  ALA103      0.0334
    109  N         -8.5440   29.7190   31.5940 N.am  104  VAL104     -0.1963
    110  CA        -8.4240   29.2020   30.2250 C.3   104  VAL104      0.1727
    111  C         -7.8990   27.7650   30.0830 C.2   104  VAL104      0.2617
    112  O         -7.7550   27.2600   28.9650 O.2   104  VAL104     -0.2715
    113  CB        -7.5200   30.1270   29.3700 C.3   104  VAL104      0.0290
    114  CG1       -8.1770   31.4840   29.1830 C.3   104  VAL104      0.0023
    115  CG2       -6.1650   30.2900   30.0440 C.3   104  VAL104      0.0023
    116  N         -7.6150   27.1110   31.2060 N.am  105  GLY105     -0.1940
    117  CA        -7.1130   25.7460   31.1600 C.3   105  GLY105      0.2014
    118  C         -5.6020   25.6290   31.0110 C.2   105  GLY105      0.2639
    119  O         -5.1010   24.6280   30.5140 O.2   105  GLY105     -0.2714
    120  N         -4.8710   26.6450   31.4530 N.am  106  ALA106     -0.1963
    121  CA        -3.4200   26.6380   31.3640 C.3   106  ALA106      0.1728
    122  C         -2.7890   27.4780   32.4700 C.2   106  ALA106      0.2616
    123  O         -3.3050   28.5390   32.8250 O.2   106  ALA106     -0.2715
    124  CB        -2.9850   27.1770   30.0070 C.3   106  ALA106      0.0334
    125  N         -1.6770   26.9960   33.0160 N.am  107  MET107     -0.1977
    126  CA        -0.9630   27.7340   34.0480 C.3   107  MET107      0.1605
    127  C         -0.5750   29.0560   33.3740 C.2   107  MET107      0.2287
    128  O          0.4370   29.1410   32.6740 O.2   107  MET107     -0.2864
    129  CB         0.2640   26.9280   34.4860 C.3   107  MET107      0.0413
    130  CG        -0.1020   25.6800   35.3130 C.3   107  MET107      0.0598
    131  SD         1.2080   24.4040   35.5150 S.3   107  MET107     -0.1393
    132  CE         0.3370   22.9340   35.0270 C.3   107  MET107      0.0692
@<TRIPOS>BOND
     1   112   111    2
     2   114   113    1
     3   113   115    1
     4   113   110    1
     5   124   121    1
     6   111   110    1
     7   111   116   am
     8   110   109    1
     9   119   118    2
    10   118   117    1
    11   118   120   am
    12   117   116    1
    13   121   120    1
    14   121   122    1
    15   109   106   am
    16   107   106    2
    17   106   105    1
    18   122   123    2
    19   122   125   am
    20   128   127    2
    21   125   126    1
    22   127   126    1
    23   108   105    1
    24   105   104    1
    25   126   129    1
    26   103   102    2
    27   104   102   am
    28   102   101    1
    29   129   130    1
    30   101   100    1
    31   132   131    1
    32   130   131    1
    33   100    98   am
    34    44    45    1
    35    48    45    1
    36    48    49    1
    37    98    99    2
    38    98    97    1
    39    45    46    1
    40    49    50   ar
    41    49    51   ar
    42    97    96    1
    43    20    19    1
    44    50    52   ar
    45    17    19   ar
    46    17    15   ar
    47    54    51   ar
    48    54    56   ar
    49    51    53   ar
    50    33    34   ar
    51    33    31   ar
    52    47    46    2
    53    34    32   ar
    54    19    18   ar
    55    15    14   ar
    56    52    53   ar
    57    42    41   ar
    58    56    57   ar
    59    31    28   ar
    60    53    55   ar
    61    65    64   ar
    62    40    41    1
    63    40    39    1
    64    41    43   ar
    65    32    30   ar
    66    76    75    1
    67    39    36    1
    68    57    55   ar
    69    77    75    1
    70    18    16   ar
    71    28    30   ar
    72    28    26   ar
    73    14    16   ar
    74    14    13    1
    75    64    66   ar
    76    64    63    1
    77    30    29   ar
    78    75    74    2
    79    26    25    1
    80    26    27   ar
    81    13    10    1
    82    25    22    1
    83    24    23    2
    84    36    35    1
    85    36    37    1
    86    29    27   ar
    87     4     3    2
    88    63    62    1
    89    74    73    1
    90    62    59    1
    91    21    22    1
    92    21    11   am
    93    37    38    2
    94    10    11    1
    95    10     9    1
    96    23    22    1
    97    93    95   ar
    98    93    91   ar
    99    95    94   ar
   100    90    91    1
   101    90    87    1
   102    91    92   ar
   103    73    72    1
   104    11    12    2
   105     3     9   am
   106     3     2    1
   107     5     6    1
   108     5     2    1
   109    94    92   ar
   110     8     6   am
   111    59    58    1
   112    59    60    1
   113     6     7    2
   114    72    71    1
   115    89    88    2
   116    84    83    1
   117     2     1    1
   118    88    87    1
   119    87    86    1
   120    83    85    1
   121    83    82    1
   122    60    61    2
   123    71    68    1
   124    68    67    1
   125    68    69    1
   126    82    79    1
   127    78    69   am
   128    78    79    1
   129    69    70    2
   130    79    80    1
   131    80    81    2
