@<TRIPOS>MOLECULE
tmp/1m7pA00.pdb
 108 103 0 0 0
SMALL
GASTEIGER

@<TRIPOS>ATOM
      1  N          9.1470   14.5540   28.0150 N.3     8  ASN8       -0.1240
      2  CA         9.5230   13.4370   27.1660 C.3     8  ASN8        0.1653
      3  C         10.6860   13.9640   26.3470 C.2     8  ASN8        0.2266
      4  O         10.4970   14.6810   25.3640 O.2     8  ASN8       -0.2867
      5  CB         8.3530   13.0070   26.2650 C.3     8  ASN8        0.1155
      6  CG         8.7190   11.8510   25.3190 C.2     8  ASN8        0.2627
      7  OD1        9.7390   11.1810   25.4960 O.2     8  ASN8       -0.2716
      8  ND2        7.8730   11.6130   24.3180 N.am    8  ASN8       -0.0877
      9  N         12.4830   12.3010   24.5800 N.3    10  LYS10      -0.1245
     10  CA        12.5780   11.5250   23.3590 C.3    10  LYS10       0.1561
     11  C         14.0100   11.0350   23.1930 C.2    10  LYS10       0.2260
     12  O         14.6410   10.6110   24.1680 O.2    10  LYS10      -0.2867
     13  CB        12.1620   12.3880   22.1720 C.3    10  LYS10       0.0271
     14  CG        10.7970   13.0230   22.3850 C.3    10  LYS10       0.0035
     15  CD        10.1970   13.6010   21.1090 C.3    10  LYS10       0.0206
     16  CE         8.6860   13.7770   21.2990 C.3    10  LYS10       0.1093
     17  NZ         7.9910   14.3930   20.1480 N.3    10  LYS10      -0.1314
     18  N          2.8930    6.0460   22.2110 N.3    93  HIS93      -0.1226
     19  CA         3.2380    7.3690   21.6970 C.3    93  HIS93       0.1752
     20  C          3.1220    7.2750   20.1710 C.2    93  HIS93       0.2596
     21  O          3.4530    6.2450   19.5810 O.2    93  HIS93      -0.2718
     22  CB         4.6610    7.7450   22.1230 C.3    93  HIS93       0.0759
     23  CG         5.0010    9.1850   21.8870 C.ar   93  HIS93       0.0818
     24  ND1        5.3390    9.6760   20.6480 N.ar   93  HIS93      -0.2268
     25  CD2        4.9950   10.2470   22.7300 C.ar   93  HIS93       0.1154
     26  CE1        5.5270   10.9860   20.7310 C.ar   93  HIS93       0.1986
     27  NE2        5.3240   11.3510   21.9830 N.ar   93  HIS93      -0.2212
     28  N          2.6740    8.3460   19.5250 N.am   94  PHE94      -0.1976
     29  CA         2.4670    8.2800   18.0890 C.3    94  PHE94       0.1639
     30  C          3.7140    8.0220   17.2600 C.2    94  PHE94       0.2290
     31  O          3.6180    7.5070   16.1490 O.2    94  PHE94      -0.2864
     32  CB         1.6910    9.5200   17.6060 C.3    94  PHE94       0.0560
     33  CG         2.5450   10.7100   17.2890 C.ar   94  PHE94      -0.0200
     34  CD1        3.0930   10.8710   16.0130 C.ar   94  PHE94      -0.0042
     35  CD2        2.7890   11.6800   18.2560 C.ar   94  PHE94      -0.0042
     36  CE1        3.8670   11.9880   15.7050 C.ar   94  PHE94      -0.0003
     37  CE2        3.5670   12.8090   17.9600 C.ar   94  PHE94      -0.0003
     38  CZ         4.1090   12.9610   16.6810 C.ar   94  PHE94      -0.0000
     39  N         -3.0810   13.0130   22.0640 N.3   163  GLU163     -0.1245
     40  CA        -2.1460   13.6160   21.1210 C.3   163  GLU163      0.1567
     41  C         -2.8820   14.0100   19.8520 C.2   163  GLU163      0.2260
     42  O         -3.2800   13.1530   19.0690 O.2   163  GLU163     -0.2867
     43  CB        -1.0220   12.6480   20.7510 C.3   163  GLU163      0.0388
     44  CG        -0.2440   12.1010   21.9190 C.3   163  GLU163      0.1160
     45  CD         0.9250   11.2390   21.4670 C.2   163  GLU163      0.3649
     46  OE1        0.6990   10.2970   20.6830 O.co2 163  GLU163     -0.2457
     47  OE2        2.0680   11.4990   21.8940 O.co2 163  GLU163     -0.2457
     48  N         -0.2450   18.2500   14.8370 N.3   168  ILE168     -0.1245
     49  CA         1.1550   18.0050   15.1400 C.3   168  ILE168      0.1561
     50  C          1.9070   17.7690   13.8360 C.2   168  ILE168      0.2260
     51  O          1.7030   16.7620   13.1580 O.2   168  ILE168     -0.2867
     52  CB         1.3090   16.7880   16.0870 C.3   168  ILE168      0.0252
     53  CG1        0.6960   17.1230   17.4480 C.3   168  ILE168      0.0019
     54  CG2        2.7710   16.4260   16.2580 C.3   168  ILE168      0.0019
     55  CD1        0.7290   15.9820   18.4370 C.3   168  ILE168      0.0001
     56  N         -1.2800   16.3150   25.1440 N.3   207  GLY207     -0.1210
     57  CA         0.0560   15.9710   24.7160 C.3   207  GLY207      0.1956
     58  C          0.3780   16.5840   23.3760 C.2   207  GLY207      0.2612
     59  O          1.0860   15.9870   22.5710 O.2   207  GLY207     -0.2717
     60  N         -0.1630   17.7650   23.1140 N.am  208  GLY208     -0.1942
     61  CA         0.1220   18.4150   21.8510 C.3   208  GLY208      0.2014
     62  C          1.3100   19.3150   22.0910 C.2   208  GLY208      0.2640
     63  O          1.9700   19.1890   23.1210 O.2   208  GLY208     -0.2714
     64  N          1.5860   20.2220   21.1650 N.am  209  SER209     -0.1935
     65  CA         2.7050   21.1340   21.3320 C.3   209  SER209      0.2055
     66  C          2.4710   22.0830   22.5020 C.2   209  SER209      0.2642
     67  O          1.5560   22.9030   22.4780 O.2   209  SER209     -0.2714
     68  CB         2.9240   21.9410   20.0570 C.3   209  SER209      0.2130
     69  OG         4.0310   21.4330   19.3360 O.3   209  SER209     -0.2179
     70  N          3.3070   21.9630   23.5260 N.am  210  VAL210     -0.1977
     71  CA         3.1990   22.8090   24.7080 C.3   210  VAL210      0.1596
     72  C          4.4540   23.6540   24.9060 C.2   210  VAL210      0.2287
     73  O          5.5780   23.1660   24.7730 O.2   210  VAL210     -0.2864
     74  CB         2.9800   21.9600   25.9710 C.3   210  VAL210      0.0276
     75  CG1        2.8690   22.8540   27.1950 C.3   210  VAL210      0.0022
     76  CG2        1.7400   21.1150   25.8020 C.3   210  VAL210      0.0022
     77  N          2.1930   16.3050   28.4670 N.3   228  LEU228     -0.1231
     78  CA         3.3510   15.4950   28.1460 C.3   228  LEU228      0.1693
     79  C          4.1020   16.4270   27.1940 C.2   228  LEU228      0.2592
     80  O          3.7640   16.5310   26.0150 O.2   228  LEU228     -0.2718
     81  CB         2.9260   14.2210   27.4180 C.3   228  LEU228      0.0284
     82  CG         4.0540   13.2720   27.0210 C.3   228  LEU228      0.0019
     83  CD1        4.7630   12.7660   28.2660 C.3   228  LEU228      0.0001
     84  CD2        3.4790   12.1130   26.2290 C.3   228  LEU228      0.0001
     85  N          5.1000   17.1270   27.7180 N.am  229  VAL229     -0.1966
     86  CA         5.8580   18.0710   26.9200 C.3   229  VAL229      0.1727
     87  C          7.0170   17.4330   26.1790 C.2   229  VAL229      0.2617
     88  O          7.7640   16.6370   26.7470 O.2   229  VAL229     -0.2715
     89  CB         6.4110   19.2030   27.7940 C.3   229  VAL229      0.0290
     90  CG1        7.0300   20.2780   26.9060 C.3   229  VAL229      0.0023
     91  CG2        5.2920   19.7800   28.6730 C.3   229  VAL229      0.0023
     92  N          7.1610   17.7930   24.9040 N.am  230  GLY230     -0.1940
     93  CA         8.2460   17.2700   24.1000 C.3   230  GLY230      0.2014
     94  C          9.4450   18.2050   24.1060 C.2   230  GLY230      0.2639
     95  O         10.1000   18.3670   25.1340 O.2   230  GLY230     -0.2714
     96  N          9.7220   18.8230   22.9590 N.am  231  ASN231     -0.1958
     97  CA        10.8390   19.7540   22.7930 C.3   231  ASN231      0.1819
     98  C         11.0500   20.7450   23.9270 C.2   231  ASN231      0.2621
     99  O         12.1720   20.9060   24.4120 O.2   231  ASN231     -0.2715
    100  CB        10.6800   20.5310   21.4880 C.3   231  ASN231      0.1195
    101  CG        11.3270   19.8170   20.2990 C.2   231  ASN231      0.2630
    102  OD1       11.7680   20.4700   19.3560 O.2   231  ASN231     -0.2716
    103  ND2       11.4120   18.5000   20.2890 N.am  231  ASN231     -0.0877
    104  N          9.9800   21.4160   24.3410 N.am  232  ALA232     -0.1977
    105  CA        10.0830   22.3920   25.4140 C.3   232  ALA232      0.1597
    106  C         10.6750   21.8010   26.6880 C.2   232  ALA232      0.2287
    107  O         11.2720   22.5250   27.4840 O.2   232  ALA232     -0.2864
    108  CB         8.7220   23.0010   25.7020 C.3   232  ALA232      0.0319
@<TRIPOS>BOND
     1    51    50    2
     2    50    49    1
     3    48    49    1
     4    49    52    1
     5    36    34   ar
     6    36    38   ar
     7    34    33   ar
     8    52    54    1
     9    52    53    1
    10    31    30    2
    11    38    37   ar
    12    30    29    1
    13    33    32    1
    14    33    35   ar
    15    53    55    1
    16    32    29    1
    17    37    35   ar
    18    29    28    1
    19    42    41    2
    20    69    68    1
    21   102   101    2
    22    28    20   am
    23    21    20    2
    24    41    40    1
    25    68    65    1
    26    17    16    1
    27    20    19    1
    28   103   101   am
    29   101   100    1
    30    24    26   ar
    31    24    23   ar
    32    46    45   ar
    33    26    27   ar
    34    43    40    1
    35    43    44    1
    36    15    16    1
    37    15    14    1
    38    40    39    1
    39    64    65    1
    40    64    62   am
    41    65    66    1
    42    45    47   ar
    43    45    44    1
    44   100    97    1
    45    19    22    1
    46    19    18    1
    47    61    62    1
    48    61    60    1
    49    23    22    1
    50    23    25   ar
    51    27    25   ar
    52    62    63    2
    53    13    14    1
    54    13    10    1
    55    67    66    2
    56    66    70   am
    57    59    58    2
    58    97    96    1
    59    97    98    1
    60    96    94   am
    61    60    58   am
    62    11    10    1
    63    11    12    2
    64    10     9    1
    65    58    57    1
    66    70    71    1
    67    98   104   am
    68    98    99    2
    69    93    94    1
    70    93    92    1
    71    94    95    2
    72     8     6   am
    73   104   105    1
    74    71    72    1
    75    71    74    1
    76    57    56    1
    77    73    72    2
    78    92    87   am
    79     6     7    2
    80     6     5    1
    81     4     3    2
    82   105   108    1
    83   105   106    1
    84    76    74    1
    85    74    75    1
    86    80    79    2
    87    87    88    2
    88    87    86    1
    89    84    82    1
    90     5     2    1
    91     3     2    1
    92   106   107    2
    93    90    89    1
    94    86    85    1
    95    86    89    1
    96    82    81    1
    97    82    83    1
    98     2     1    1
    99    79    85   am
   100    79    78    1
   101    81    78    1
   102    89    91    1
   103    78    77    1
