@<TRIPOS>MOLECULE
tmp/1m7qA00.pdb
 190 177 0 0 0
SMALL
GASTEIGER

@<TRIPOS>ATOM
      1  N         46.8310   33.9840   21.6850 N.3    27  VAL27      -0.1245
      2  CA        47.9780   33.9670   22.5700 C.3    27  VAL27       0.1561
      3  C         48.1260   32.6100   23.2290 C.2    27  VAL27       0.2260
      4  O         48.4240   32.5210   24.4270 O.2    27  VAL27      -0.2867
      5  CB        47.8690   35.0420   23.6640 C.3    27  VAL27       0.0252
      6  CG1       47.9770   36.4150   23.0430 C.3    27  VAL27       0.0019
      7  CG2       46.5650   34.8930   24.4280 C.3    27  VAL27       0.0019
      8  N         42.6910   22.0730   25.9820 N.3    32  TYR32      -0.1241
      9  CA        41.7330   22.7610   26.8550 C.3    32  TYR32       0.1605
     10  C         40.7890   23.6250   26.0090 C.2    32  TYR32       0.2264
     11  O         39.6180   23.8330   26.3620 O.2    32  TYR32      -0.2867
     12  CB        42.4870   23.6530   27.8650 C.3    32  TYR32       0.0534
     13  CG        43.2420   24.8400   27.2530 C.ar   32  TYR32      -0.0201
     14  CD1       42.5630   25.9890   26.8060 C.ar   32  TYR32      -0.0009
     15  CD2       44.6330   24.8100   27.1090 C.ar   32  TYR32      -0.0009
     16  CE1       43.2550   27.0760   26.2300 C.ar   32  TYR32       0.0417
     17  CE2       45.3320   25.8960   26.5340 C.ar   32  TYR32       0.0417
     18  CZ        44.6330   27.0210   26.0980 C.ar   32  TYR32       0.1957
     19  OH        45.3110   28.0810   25.5320 O.3    32  TYR32      -0.2866
     20  N         42.8070   30.2350   23.4940 N.3    35  VAL35      -0.1245
     21  CA        42.6870   31.5170   24.1550 C.3    35  VAL35       0.1561
     22  C         43.1720   32.6820   23.3000 C.2    35  VAL35       0.2260
     23  O         44.1430   32.5580   22.5320 O.2    35  VAL35      -0.2867
     24  CB        43.4210   31.5090   25.5130 C.3    35  VAL35       0.0252
     25  CG1       43.5270   32.9340   26.0850 C.3    35  VAL35       0.0019
     26  CG2       42.6460   30.6150   26.4850 C.3    35  VAL35       0.0019
     27  N         41.1210   38.3180   28.4070 N.3    48  ALA48      -0.1245
     28  CA        41.5390   37.0320   27.8460 C.3    48  ALA48       0.1562
     29  C         40.2650   36.2430   27.5310 C.2    48  ALA48       0.2260
     30  O         39.4500   35.9770   28.4290 O.2    48  ALA48      -0.2867
     31  CB        42.3950   36.2700   28.8560 C.3    48  ALA48       0.0290
     32  N         38.5890   32.7750   26.2080 N.3    50  LYS50      -0.1245
     33  CA        38.7900   31.3380   25.9800 C.3    50  LYS50       0.1561
     34  C         37.5930   30.6310   25.3380 C.2    50  LYS50       0.2260
     35  O         36.4790   30.6960   25.8490 O.2    50  LYS50      -0.2867
     36  CB        39.1320   30.6720   27.3140 C.3    50  LYS50       0.0271
     37  CG        39.2820   29.1760   27.2900 C.3    50  LYS50       0.0035
     38  CD        39.5900   28.7510   28.7150 C.3    50  LYS50       0.0206
     39  CE        39.7000   27.2480   28.8800 C.3    50  LYS50       0.1093
     40  NZ        40.1640   26.9530   30.2630 N.3    50  LYS50      -0.1314
     41  N         33.3110   23.5220   34.9740 N.3    68  GLU68      -0.1245
     42  CA        34.1500   24.7090   34.8410 C.3    68  GLU68       0.1567
     43  C         33.3160   25.9920   34.9200 C.2    68  GLU68       0.2260
     44  O         33.6730   26.9190   35.6370 O.2    68  GLU68      -0.2867
     45  CB        34.9860   24.6740   33.5390 C.3    68  GLU68       0.0388
     46  CG        35.5790   26.0490   33.1370 C.3    68  GLU68       0.1160
     47  CD        36.8300   25.9820   32.2560 C.2    68  GLU68       0.3649
     48  OE1       36.8210   25.2650   31.2230 O.co2  68  GLU68      -0.2457
     49  OE2       37.8300   26.6750   32.5920 O.co2  68  GLU68      -0.2457
     50  N         33.7280   28.9440   37.7220 N.3    72  LEU72      -0.1245
     51  CA        34.0390   30.3100   37.3060 C.3    72  LEU72       0.1561
     52  C         32.9280   31.3100   37.6620 C.2    72  LEU72       0.2260
     53  O         33.2210   32.4640   37.9840 O.2    72  LEU72      -0.2867
     54  CB        34.3560   30.3610   35.7990 C.3    72  LEU72       0.0270
     55  CG        35.6860   29.7370   35.3140 C.3    72  LEU72       0.0019
     56  CD1       35.7290   29.6740   33.7810 C.3    72  LEU72       0.0001
     57  CD2       36.8710   30.5500   35.8550 C.3    72  LEU72       0.0001
     58  N         40.5770   33.9480   40.0160 N.3    81  ILE81      -0.1245
     59  CA        40.1670   34.2520   38.6540 C.3    81  ILE81       0.1561
     60  C         38.6450   34.4100   38.5560 C.2    81  ILE81       0.2260
     61  O         37.9010   33.4340   38.6760 O.2    81  ILE81      -0.2867
     62  CB        40.6430   33.1400   37.6830 C.3    81  ILE81       0.0252
     63  CG1       40.5430   33.6360   36.2500 C.3    81  ILE81       0.0019
     64  CG2       39.8420   31.8490   37.8940 C.3    81  ILE81       0.0019
     65  CD1       41.5870   34.7280   35.9540 C.3    81  ILE81       0.0001
     66  N         34.9850   35.8090   36.5530 N.3    83  LEU83      -0.1245
     67  CA        34.4520   35.7030   35.2070 C.3    83  LEU83       0.1561
     68  C         33.8270   37.0570   34.8500 C.2    83  LEU83       0.2260
     69  O         32.9270   37.5530   35.5480 O.2    83  LEU83      -0.2867
     70  CB        33.4150   34.5810   35.1460 C.3    83  LEU83       0.0270
     71  CG        32.8210   34.1570   33.8080 C.3    83  LEU83       0.0019
     72  CD1       33.8850   33.5880   32.8980 C.3    83  LEU83       0.0001
     73  CD2       31.7610   33.1190   34.0850 C.3    83  LEU83       0.0001
     74  N         34.4980   32.0140   27.3790 N.3   101  LEU101     -0.1245
     75  CA        34.6010   32.5430   28.7400 C.3   101  LEU101      0.1561
     76  C         35.5750   33.6900   28.6890 C.2   101  LEU101      0.2260
     77  O         36.6670   33.5390   28.1560 O.2   101  LEU101     -0.2867
     78  CB        35.1100   31.4620   29.6800 C.3   101  LEU101      0.0270
     79  CG        34.2740   30.1790   29.6150 C.3   101  LEU101      0.0019
     80  CD1       35.1460   28.9980   29.9530 C.3   101  LEU101      0.0001
     81  CD2       33.0380   30.2870   30.5250 C.3   101  LEU101      0.0001
     82  N         37.7410   36.7540   30.7510 N.3   103  THR103     -0.1203
     83  CA        38.2500   37.0890   32.0550 C.3   103  THR103      0.1994
     84  C         39.3230   38.1730   31.9650 C.2   103  THR103      0.2618
     85  O         39.5920   38.7000   30.8930 O.2   103  THR103     -0.2717
     86  CB        38.8340   35.8390   32.7310 C.3   103  THR103      0.1784
     87  OG1       39.1010   36.1160   34.1090 O.3   103  THR103     -0.2211
     88  CG2       40.1140   35.4500   32.0730 C.3   103  THR103      0.0376
     89  N         39.9330   38.5310   33.0860 N.am  104  HIS104     -0.1961
     90  CA        40.9730   39.5420   33.0270 C.3   104  HIS104      0.1787
     91  C         42.2160   39.0350   32.3090 C.2   104  HIS104      0.2620
     92  O         42.5060   37.8310   32.2780 O.2   104  HIS104     -0.2715
     93  CB        41.3980   39.9870   34.4280 C.3   104  HIS104      0.0785
     94  CG        40.2690   40.4560   35.2880 C.ar  104  HIS104      0.0821
     95  ND1       39.3860   39.5860   35.8930 N.ar  104  HIS104     -0.2267
     96  CD2       39.9040   41.7010   35.6780 C.ar  104  HIS104      0.1154
     97  CE1       38.5270   40.2760   36.6230 C.ar  104  HIS104      0.1986
     98  NE2       38.8200   41.5610   36.5100 N.ar  104  HIS104     -0.2212
     99  N         42.9570   39.9700   31.7360 N.am  105  LEU105     -0.1963
    100  CA        44.2090   39.6240   31.0820 C.3   105  LEU105      0.1728
    101  C         45.2660   39.9840   32.1310 C.2   105  LEU105      0.2616
    102  O         45.3750   41.1480   32.5570 O.2   105  LEU105     -0.2715
    103  CB        44.4110   40.4500   29.8120 C.3   105  LEU105      0.0311
    104  CG        45.6300   40.0830   28.9780 C.3   105  LEU105      0.0022
    105  CD1       45.5260   38.6350   28.4970 C.3   105  LEU105      0.0001
    106  CD2       45.7270   41.0270   27.7880 C.3   105  LEU105      0.0001
    107  N         46.0040   38.9690   32.5800 N.am  106  MET106     -0.1963
    108  CA        47.0510   39.1300   33.5930 C.3   106  MET106      0.1736
    109  C         48.3860   39.2700   32.9030 C.2   106  MET106      0.2617
    110  O         49.2300   40.0690   33.3230 O.2   106  MET106     -0.2715
    111  CB        47.0760   37.9170   34.5200 C.3   106  MET106      0.0427
    112  CG        45.7510   37.6680   35.2160 C.3   106  MET106      0.0599
    113  SD        45.2270   39.1470   36.1060 S.3   106  MET106     -0.1393
    114  CE        46.4320   39.2140   37.5070 C.3   106  MET106      0.0692
    115  N         48.5720   38.4780   31.8500 N.am  107  GLY107     -0.1940
    116  CA        49.8040   38.5590   31.0870 C.3   107  GLY107      0.2014
    117  C         50.8930   37.5230   31.3240 C.2   107  GLY107      0.2639
    118  O         51.5520   37.0800   30.3600 O.2   107  GLY107     -0.2714
    119  N         51.1000   37.1420   32.5850 N.am  108  ALA108     -0.1963
    120  CA        52.1260   36.1610   32.8990 C.3   108  ALA108      0.1728
    121  C         51.8110   35.3930   34.1760 C.2   108  ALA108      0.2616
    122  O         51.0060   35.8510   34.9990 O.2   108  ALA108     -0.2715
    123  CB        53.4910   36.8540   33.0260 C.3   108  ALA108      0.0334
    124  N         52.4610   34.2330   34.3250 N.am  109  ASP109     -0.1971
    125  CA        52.2840   33.3800   35.4830 C.3   109  ASP109      0.1709
    126  C         53.4820   33.4880   36.3910 C.2   109  ASP109      0.2293
    127  O         54.4250   34.1920   36.0760 O.2   109  ASP109     -0.2864
    128  CB        52.0620   31.9330   35.0560 C.3   109  ASP109      0.1436
    129  CG        53.1660   31.3960   34.1810 C.2   109  ASP109      0.3671
    130  OD1       54.3440   31.4430   34.5990 O.co2 109  ASP109     -0.2456
    131  OD2       52.8470   30.8990   33.0750 O.co2 109  ASP109     -0.2456
    132  N         57.2180   33.0870   35.0100 N.3   112  ASN112     -0.1240
    133  CA        57.7660   34.2520   34.3170 C.3   112  ASN112      0.1653
    134  C         58.3640   35.2230   35.3270 C.2   112  ASN112      0.2266
    135  O         59.5870   35.4520   35.3440 O.2   112  ASN112     -0.2867
    136  CB        56.6620   34.9360   33.5200 C.3   112  ASN112      0.1155
    137  CG        55.9990   33.9900   32.5400 C.2   112  ASN112      0.2627
    138  OD1       54.8670   34.2330   32.0900 O.2   112  ASN112     -0.2716
    139  ND2       56.7000   32.9000   32.1930 N.am  112  ASN112     -0.0877
    140  N         52.4270   27.9680   37.5170 N.3   151  SER151     -0.1202
    141  CA        51.7920   28.2700   36.2340 C.3   151  SER151      0.2020
    142  C         50.2710   28.4760   36.3300 C.2   151  SER151      0.2619
    143  O         49.6640   28.9050   35.3600 O.2   151  SER151     -0.2717
    144  CB        52.1280   27.1940   35.1880 C.3   151  SER151      0.2103
    145  OG        51.6760   25.9100   35.5540 O.3   151  SER151     -0.2182
    146  N         49.6730   28.1720   37.4880 N.am  152  ASN152     -0.1960
    147  CA        48.2380   28.3870   37.7140 C.3   152  ASN152      0.1819
    148  C         48.0750   29.6880   38.5090 C.2   152  ASN152      0.2621
    149  O         46.9890   30.0180   38.9660 O.2   152  ASN152     -0.2715
    150  CB        47.5940   27.2690   38.5300 C.3   152  ASN152      0.1195
    151  CG        47.5170   25.9660   37.7820 C.2   152  ASN152      0.2630
    152  OD1       47.4760   25.9200   36.5390 O.2   152  ASN152     -0.2716
    153  ND2       47.4740   24.8800   38.5330 N.am  152  ASN152     -0.0877
    154  N         49.1690   30.4160   38.6890 N.am  153  LEU153     -0.1963
    155  CA        49.1410   31.6720   39.4310 C.3   153  LEU153      0.1728
    156  C         49.5710   32.8560   38.5530 C.2   153  LEU153      0.2616
    157  O         50.7390   32.9870   38.1860 O.2   153  LEU153     -0.2715
    158  CB        50.0420   31.5580   40.6560 C.3   153  LEU153      0.0311
    159  CG        49.6610   30.4370   41.6250 C.3   153  LEU153      0.0022
    160  CD1       50.6810   30.3510   42.7280 C.3   153  LEU153      0.0001
    161  CD2       48.2850   30.7220   42.1950 C.3   153  LEU153      0.0001
    162  N         48.6050   33.7040   38.2030 N.am  154  ALA154     -0.1977
    163  CA        48.8390   34.8640   37.3510 C.3   154  ALA154      0.1597
    164  C         49.2040   36.0840   38.1550 C.2   154  ALA154      0.2287
    165  O         48.6170   36.3590   39.2040 O.2   154  ALA154     -0.2864
    166  CB        47.6100   35.1520   36.5510 C.3   154  ALA154      0.0319
    167  N         44.2760   30.5860   39.1210 N.3   164  LEU164     -0.1231
    168  CA        43.5880   30.0420   37.9360 C.3   164  LEU164      0.1693
    169  C         43.4960   28.5460   37.8650 C.2   164  LEU164      0.2592
    170  O         43.9940   27.8260   38.7040 O.2   164  LEU164     -0.2718
    171  CB        44.2530   30.4930   36.6250 C.3   164  LEU164      0.0284
    172  CG        44.1430   31.9720   36.2560 C.3   164  LEU164      0.0019
    173  CD1       45.0170   32.7760   37.2260 C.3   164  LEU164      0.0001
    174  CD2       44.6030   32.1840   34.8140 C.3   164  LEU164      0.0001
    175  N         42.8780   28.1040   36.7900 N.am  165  ASP165     -0.1974
    176  CA        42.6830   26.7020   36.5040 C.3   165  ASP165      0.1709
    177  C         41.8330   25.9680   37.5070 C.2   165  ASP165      0.2293
    178  O         42.3020   25.3670   38.4610 O.2   165  ASP165     -0.2864
    179  CB        44.0250   25.9950   36.2790 C.3   165  ASP165      0.1436
    180  CG        44.6220   26.3080   34.8900 C.2   165  ASP165      0.3671
    181  OD1       45.5890   25.6250   34.4700 O.co2 165  ASP165     -0.2456
    182  OD2       44.1200   27.2470   34.2230 O.co2 165  ASP165     -0.2456
    183  N         39.3610   22.2240   35.4650 N.3   168  LEU168     -0.1245
    184  CA        40.0970   21.8130   34.2740 C.3   168  LEU168      0.1561
    185  C         40.3000   20.2910   34.3480 C.2   168  LEU168      0.2260
    186  O         40.5520   19.7390   35.4380 O.2   168  LEU168     -0.2867
    187  CB        41.4630   22.5340   34.1610 C.3   168  LEU168      0.0270
    188  CG        41.5680   24.0560   33.8820 C.3   168  LEU168      0.0019
    189  CD1       42.9340   24.3320   33.2520 C.3   168  LEU168      0.0001
    190  CD2       40.4710   24.5430   32.9230 C.3   168  LEU168      0.0001
@<TRIPOS>BOND
     1     1     2    1
     2    23    22    2
     3     2     3    1
     4     2     5    1
     5     6     5    1
     6     3     4    2
     7    22    21    1
     8    20    21    1
     9     5     7    1
    10    21    24    1
    11    34    35    2
    12    34    33    1
    13    24    25    1
    14    24    26    1
    15    19    18    1
    16    33    32    1
    17    33    36    1
    18     8     9    1
    19    10    11    2
    20    10     9    1
    21    18    16   ar
    22    18    17   ar
    23    16    14   ar
    24    17    15   ar
    25    14    13   ar
    26     9    12    1
    27    15    13   ar
    28    13    12    1
    29    37    36    1
    30    37    38    1
    31    74    75    1
    32    29    28    1
    33    29    30    2
    34   106   104    1
    35    28    27    1
    36    28    31    1
    37    77    76    2
    38   105   104    1
    39    76    75    1
    40    38    39    1
    41    75    78    1
    42    39    40    1
    43   104   103    1
    44    79    78    1
    45    79    80    1
    46    79    81    1
    47   103   100    1
    48   118   117    2
    49    82    83    1
    50    85    84    2
    51   100    99    1
    52   100   101    1
    53   116   117    1
    54   116   115    1
    55    48    47   ar
    56   117   119   am
    57    99    91   am
    58   115   109   am
    59    84    83    1
    60    84    89   am
    61    83    86    1
    62    88    86    1
    63   138   137    2
    64   101   102    2
    65   101   107   am
    66   139   137   am
    67    47    49   ar
    68    47    46    1
    69    92    91    2
    70    91    90    1
    71   137   136    1
    72   107   108    1
    73   119   120    1
    74    86    87    1
    75    72    71    1
    76   120   123    1
    77   120   121    1
    78   109   110    2
    79   109   108    1
    80   190   188    1
    81    90    89    1
    82    90    93    1
    83   131   129   ar
    84    46    45    1
    85   189   188    1
    86   136   133    1
    87    45    42    1
    88   108   111    1
    89    56    55    1
    90    71    73    1
    91    71    70    1
    92   188   187    1
    93   187   184    1
    94   121   124   am
    95   121   122    2
    96   129   130   ar
    97   129   128    1
    98   182   180   ar
    99   184   185    1
   100   184   183    1
   101   133   132    1
   102   133   134    1
   103   124   125    1
   104   185   186    2
   105    93    94    1
   106   181   180   ar
   107   111   112    1
   108   174   172    1
   109    42    43    1
   110    42    41    1
   111    68    67    1
   112    68    69    2
   113   180   179    1
   114    43    44    2
   115   128   125    1
   116    70    67    1
   117   144   145    1
   118   144   141    1
   119    67    66    1
   120   112   113    1
   121    94    96   ar
   122    94    95   ar
   123    55    54    1
   124    55    57    1
   125   134   135    2
   126   143   142    2
   127   125   126    1
   128    96    98   ar
   129    54    51    1
   130    95    97   ar
   131    65    63    1
   132   127   126    2
   133   113   114    1
   134   141   142    1
   135   141   140    1
   136    63    62    1
   137   172   171    1
   138   172   173    1
   139   179   176    1
   140   142   146   am
   141   176   175    1
   142   176   177    1
   143    98    97   ar
   144   152   151    2
   145   166   163    1
   146   171   168    1
   147   175   169   am
   148    51    52    1
   149    51    50    1
   150   163   164    1
   151   163   162    1
   152   146   147    1
   153   177   178    2
   154    52    53    2
   155    62    64    1
   156    62    59    1
   157   147   148    1
   158   147   150    1
   159   151   150    1
   160   151   153   am
   161   169   168    1
   162   169   170    2
   163   168   167    1
   164   164   165    2
   165   157   156    2
   166   162   156   am
   167   148   154   am
   168   148   149    2
   169   156   155    1
   170    60    59    1
   171    60    61    2
   172    59    58    1
   173   154   155    1
   174   155   158    1
   175   158   159    1
   176   159   161    1
   177   159   160    1
