@<TRIPOS>MOLECULE
tmp/1m7sD00.pdb
 229 220 0 0 0
SMALL
GASTEIGER

@<TRIPOS>ATOM
      1  N         29.7560  -28.0000   34.2890 N.3    49  ARG49      -0.1231
      2  CA        29.8260  -28.9040   33.1340 C.3    49  ARG49       0.1694
      3  C         28.4940  -29.6840   33.0410 C.2    49  ARG49       0.2592
      4  O         27.9890  -30.1060   34.0780 O.2    49  ARG49      -0.2718
      5  CB        30.9460  -29.9240   33.3310 C.3    49  ARG49       0.0321
      6  CG        32.3530  -29.2940   33.2380 C.3    49  ARG49       0.0489
      7  CD        33.3740  -30.1510   33.9560 C.3    49  ARG49       0.2205
      8  NE        34.7310  -29.5780   33.8080 N.pl3  49  ARG49      -0.0865
      9  CZ        35.2700  -28.5410   34.4260 C.cat  49  ARG49       0.5346
     10  NH1       34.5920  -27.8400   35.3250 N.pl3  49  ARG49       0.1354
     11  NH2       36.5160  -28.1510   34.1160 N.pl3  49  ARG49       0.1354
     12  N         28.1030  -29.9740   31.8110 N.am   50  VAL50      -0.1966
     13  CA        26.8410  -30.7160   31.6230 C.3    50  VAL50       0.1727
     14  C         26.9290  -32.1420   32.1200 C.2    50  VAL50       0.2616
     15  O         25.9500  -32.7060   32.5990 O.2    50  VAL50      -0.2715
     16  CB        26.4240  -30.5690   30.1340 C.3    50  VAL50       0.0290
     17  CG1       27.3440  -31.2920   29.1900 C.3    50  VAL50       0.0023
     18  CG2       25.0020  -31.0700   29.9700 C.3    50  VAL50       0.0023
     19  N         28.1300  -32.7300   32.2140 N.am   51  VAL51      -0.1963
     20  CA        28.4360  -34.0020   32.8540 C.3    51  VAL51       0.1727
     21  C         29.8230  -33.8740   33.5350 C.2    51  VAL51       0.2616
     22  O         30.5110  -32.9450   33.0810 O.2    51  VAL51      -0.2715
     23  CB        28.5080  -35.2410   31.9540 C.3    51  VAL51       0.0290
     24  CG1       27.0480  -35.6040   31.6350 C.3    51  VAL51       0.0023
     25  CG2       29.2930  -34.9770   30.6950 C.3    51  VAL51       0.0023
     26  N         30.1200  -34.6540   34.5530 N.am   52  HIS52      -0.1973
     27  CA        31.3940  -34.5130   35.2820 C.3    52  HIS52       0.1656
     28  C         31.5490  -33.1600   35.9600 C.2    52  HIS52       0.2291
     29  O         32.6720  -32.6220   36.1290 O.2    52  HIS52      -0.2864
     30  CB        32.6190  -34.7540   34.3590 C.3    52  HIS52       0.0771
     31  CG        32.7090  -36.1440   33.7960 C.ar   52  HIS52       0.0820
     32  ND1       33.5440  -37.1010   34.2630 N.ar   52  HIS52      -0.2267
     33  CD2       32.0650  -36.7160   32.7450 C.ar   52  HIS52       0.1154
     34  CE1       33.4110  -38.2290   33.5620 C.ar   52  HIS52       0.1986
     35  NE2       32.4640  -38.0070   32.6690 N.ar   52  HIS52      -0.2212
     36  N         42.2460  -33.5830   35.9070 N.3    88  ARG88      -0.1245
     37  CA        40.9770  -33.2880   36.6060 C.3    88  ARG88       0.1563
     38  C         40.2940  -34.6750   36.7520 C.2    88  ARG88       0.2260
     39  O         40.1840  -35.3820   35.7500 O.2    88  ARG88      -0.2867
     40  CB        40.0560  -32.3180   35.8940 C.3    88  ARG88       0.0307
     41  CG        38.8170  -31.9570   36.7680 C.3    88  ARG88       0.0489
     42  CD        38.1030  -30.7190   36.0990 C.3    88  ARG88       0.2205
     43  NE        36.8000  -30.4570   36.7650 N.pl3  88  ARG88      -0.0865
     44  CZ        35.6710  -31.1760   36.6160 C.cat  88  ARG88       0.5346
     45  NH1       35.5360  -32.2330   35.8320 N.pl3  88  ARG88       0.1354
     46  NH2       34.5540  -30.7710   37.2900 N.pl3  88  ARG88       0.1354
     47  N         36.9240  -36.8850   38.3770 N.3    90  SER90      -0.1217
     48  CA        35.5590  -36.3530   38.5960 C.3    90  SER90       0.1889
     49  C         34.5450  -37.4970   38.6910 C.2    90  SER90       0.2288
     50  O         34.9770  -38.6140   38.4230 O.2    90  SER90      -0.2866
     51  CB        35.2380  -35.4400   37.4160 C.3    90  SER90       0.2089
     52  OG        35.2890  -36.1390   36.1860 O.3    90  SER90      -0.2183
     53  N         35.8960  -39.8150   36.1310 N.3   107  GLY107     -0.1210
     54  CA        36.6990  -39.2740   35.0420 C.3   107  GLY107      0.1956
     55  C         38.1690  -39.1160   35.4560 C.2   107  GLY107      0.2612
     56  O         38.4670  -38.9510   36.6350 O.2   107  GLY107     -0.2717
     57  N         39.0090  -39.1780   34.4610 N.am  108  PHE108     -0.1962
     58  CA        40.4930  -39.1060   34.6700 C.3   108  PHE108      0.1771
     59  C         40.9970  -38.4390   33.3980 C.2   108  PHE108      0.2619
     60  O         41.2680  -39.0770   32.3610 O.2   108  PHE108     -0.2715
     61  CB        41.0500  -40.5260   34.8110 C.3   108  PHE108      0.0574
     62  CG        42.5070  -40.6590   35.2360 C.ar  108  PHE108     -0.0200
     63  CD1       42.9030  -41.8320   35.8860 C.ar  108  PHE108     -0.0042
     64  CD2       43.4140  -39.6490   35.0620 C.ar  108  PHE108     -0.0042
     65  CE1       44.2200  -41.9930   36.2640 C.ar  108  PHE108     -0.0003
     66  CE2       44.7460  -39.7950   35.4260 C.ar  108  PHE108     -0.0003
     67  CZ        45.1390  -40.9790   36.0590 C.ar  108  PHE108     -0.0000
     68  N         40.9850  -37.1140   33.3810 N.am  109  ALA109     -0.1977
     69  CA        41.3300  -36.3110   32.2180 C.3   109  ALA109      0.1597
     70  C         42.7080  -35.6490   32.4190 C.2   109  ALA109      0.2287
     71  O         42.8790  -34.9320   33.3910 O.2   109  ALA109     -0.2864
     72  CB        40.3000  -35.1980   32.0640 C.3   109  ALA109      0.0319
     73  N         41.3300  -37.6350   27.5490 N.3   122  VAL122     -0.1231
     74  CA        40.1680  -37.5270   28.4390 C.3   122  VAL122      0.1692
     75  C         39.5710  -38.9120   28.6440 C.2   122  VAL122      0.2593
     76  O         38.8840  -39.4350   27.7550 O.2   122  VAL122     -0.2718
     77  CB        39.1570  -36.5760   27.7560 C.3   122  VAL122      0.0266
     78  CG1       37.9820  -36.2740   28.6920 C.3   122  VAL122      0.0020
     79  CG2       39.7710  -35.1970   27.4220 C.3   122  VAL122      0.0020
     80  N         39.9120  -39.5230   29.7520 N.am  123  GLY123     -0.1942
     81  CA        39.5760  -40.9120   30.0320 C.3   123  GLY123      0.2014
     82  C         38.6950  -41.0740   31.2530 C.2   123  GLY123      0.2638
     83  O         38.2410  -40.1050   31.8550 O.2   123  GLY123     -0.2714
     84  N         38.4960  -42.3380   31.6260 N.am  124  ASN124     -0.1972
     85  CA        37.7260  -42.7120   32.7850 C.3   124  ASN124      0.1688
     86  C         38.3930  -43.9210   33.4400 C.2   124  ASN124      0.2292
     87  O         39.2250  -44.6090   32.8380 O.2   124  ASN124     -0.2864
     88  CB        36.3330  -43.2350   32.3370 C.3   124  ASN124      0.1181
     89  CG        35.2760  -42.1780   32.2610 C.2   124  ASN124      0.2629
     90  OD1       35.4350  -40.9960   32.5840 O.2   124  ASN124     -0.2716
     91  ND2       34.0860  -42.6030   31.7570 N.am  124  ASN124     -0.0877
     92  N         32.6600  -48.1970   27.7050 N.3   129  PHE129     -0.1241
     93  CA        31.5370  -47.2670   27.9050 C.3   129  PHE129      0.1605
     94  C         30.1970  -47.9630   27.6660 C.2   129  PHE129      0.2264
     95  O         30.1920  -49.0730   27.1300 O.2   129  PHE129     -0.2867
     96  CB        31.7020  -46.0590   27.0060 C.3   129  PHE129      0.0534
     97  CG        31.0240  -44.8220   27.5400 C.ar  129  PHE129     -0.0203
     98  CD1       29.9690  -44.2310   26.8550 C.ar  129  PHE129     -0.0042
     99  CD2       31.4720  -44.2740   28.7280 C.ar  129  PHE129     -0.0042
    100  CE1       29.3940  -43.0840   27.3890 C.ar  129  PHE129     -0.0003
    101  CE2       30.8880  -43.1130   29.2450 C.ar  129  PHE129     -0.0003
    102  CZ        29.8420  -42.5030   28.5650 C.ar  129  PHE129     -0.0000
    103  N         27.9500  -41.6910   19.3820 N.3   134  ALA134     -0.1245
    104  CA        27.7110  -40.4390   20.0940 C.3   134  ALA134      0.1562
    105  C         26.3310  -39.8270   19.8750 C.2   134  ALA134      0.2260
    106  O         25.8920  -38.9950   20.6960 O.2   134  ALA134     -0.2867
    107  CB        28.8190  -39.4480   19.7070 C.3   134  ALA134      0.0290
    108  N         24.4590  -40.1480   23.0460 N.3   137  PHE137     -0.1228
    109  CA        24.9300  -39.6540   24.3470 C.3   137  PHE137      0.1721
    110  C         23.9360  -38.7570   25.0690 C.2   137  PHE137      0.2437
    111  O         23.7400  -38.9580   26.2980 O.2   137  PHE137     -0.2733
    112  CB        26.3000  -38.9540   24.1860 C.3   137  PHE137      0.0547
    113  CG        26.9410  -38.5330   25.4760 C.ar  137  PHE137     -0.0202
    114  CD1       27.5630  -39.4970   26.2420 C.ar  137  PHE137     -0.0042
    115  CD2       26.9690  -37.1870   25.8640 C.ar  137  PHE137     -0.0042
    116  CE1       28.1800  -39.1400   27.4510 C.ar  137  PHE137     -0.0003
    117  CE2       27.5670  -36.8320   27.0570 C.ar  137  PHE137     -0.0003
    118  CZ        28.2160  -37.7950   27.7770 C.ar  137  PHE137     -0.0000
    119  N         23.2680  -37.8200   24.4290 N.am  138  PRO138     -0.2729
    120  CA        22.2760  -36.9490   25.0770 C.3   138  PRO138      0.1401
    121  C         21.1720  -37.8390   25.6550 C.2   138  PRO138      0.2269
    122  O         20.8360  -37.6690   26.8420 O.2   138  PRO138     -0.2865
    123  CB        21.8060  -35.9200   24.0100 C.3   138  PRO138      0.0296
    124  CG        22.9930  -35.9470   23.0520 C.3   138  PRO138      0.0237
    125  CD        23.4780  -37.4030   23.0350 C.3   138  PRO138      0.0939
    126  N         41.8080  -44.7450   28.2590 N.3   192  GLY192     -0.1210
    127  CA        41.4000  -43.8150   27.2250 C.3   192  GLY192      0.1956
    128  C         40.0290  -44.2350   26.6900 C.2   192  GLY192      0.2612
    129  O         39.3380  -43.4710   26.0050 O.2   192  GLY192     -0.2717
    130  N         39.6960  -45.5110   26.8860 N.am  193  VAL193     -0.1965
    131  CA        38.5390  -46.2030   26.3630 C.3   193  VAL193      0.1727
    132  C         38.7240  -46.4930   24.8550 C.2   193  VAL193      0.2616
    133  O         38.7510  -47.6650   24.4600 O.2   193  VAL193     -0.2715
    134  CB        37.2170  -45.4880   26.6140 C.3   193  VAL193      0.0290
    135  CG1       36.0700  -46.2960   26.0090 C.3   193  VAL193      0.0023
    136  CG2       37.0000  -45.2910   28.1190 C.3   193  VAL193      0.0023
    137  N         38.6980  -45.4630   24.0340 N.am  194  HIS194     -0.1973
    138  CA        38.8290  -45.7110   22.6030 C.3   194  HIS194      0.1656
    139  C         40.2330  -46.0930   22.1490 C.2   194  HIS194      0.2291
    140  O         41.2590  -45.7230   22.7660 O.2   194  HIS194     -0.2864
    141  CB        38.5210  -44.3930   21.8270 C.3   194  HIS194      0.0771
    142  CG        37.3500  -43.6430   22.3950 C.ar  194  HIS194      0.0820
    143  ND1       36.0520  -44.0930   22.2610 N.ar  194  HIS194     -0.2267
    144  CD2       37.3110  -42.4690   23.1000 C.ar  194  HIS194      0.1154
    145  CE1       35.2480  -43.2200   22.8660 C.ar  194  HIS194      0.1986
    146  NE2       35.9630  -42.2450   23.3780 N.ar  194  HIS194     -0.2212
    147  N         39.3100  -25.1870   33.5950 N.3   306  VAL306     -0.1245
    148  CA        40.0710  -26.0480   32.6890 C.3   306  VAL306      0.1561
    149  C         39.1810  -26.6710   31.6120 C.2   306  VAL306      0.2260
    150  O         38.0190  -26.9580   31.8890 O.2   306  VAL306     -0.2867
    151  CB        40.8910  -27.0990   33.4460 C.3   306  VAL306      0.0252
    152  CG1       40.0680  -28.2430   34.0210 C.3   306  VAL306      0.0019
    153  CG2       41.9940  -27.5990   32.4930 C.3   306  VAL306      0.0019
    154  N         39.0980  -29.5340   29.0180 N.3   308  MET308     -0.1245
    155  CA        39.6550  -30.8050   28.5110 C.3   308  MET308      0.1570
    156  C         38.8770  -31.1830   27.2390 C.2   308  MET308      0.2261
    157  O         37.6220  -31.2360   27.2940 O.2   308  MET308     -0.2867
    158  CB        39.4010  -31.9360   29.5140 C.3   308  MET308      0.0387
    159  CG        40.0710  -31.7210   30.8670 C.3   308  MET308      0.0595
    160  SD        41.8740  -31.8950   30.7980 S.3   308  MET308     -0.1393
    161  CE        42.2090  -31.6580   32.5630 C.3   308  MET308      0.0692
    162  N         31.8990  -43.3890   18.8320 N.3   324  LEU324     -0.1245
    163  CA        31.6510  -42.6650   20.0670 C.3   324  LEU324      0.1561
    164  C         32.6570  -41.5070   20.1640 C.2   324  LEU324      0.2260
    165  O         32.2790  -40.3700   20.4230 O.2   324  LEU324     -0.2867
    166  CB        31.7590  -43.5780   21.2740 C.3   324  LEU324      0.0270
    167  CG        31.2630  -42.9850   22.5920 C.3   324  LEU324      0.0019
    168  CD1       29.7370  -42.7760   22.5460 C.3   324  LEU324      0.0001
    169  CD2       31.5490  -43.8980   23.7810 C.3   324  LEU324      0.0001
    170  N         32.0010  -38.2950   17.9200 N.3   327  GLY327     -0.1210
    171  CA        31.1950  -37.1610   18.4120 C.3   327  GLY327      0.1956
    172  C         31.8790  -36.3870   19.5240 C.2   327  GLY327      0.2611
    173  O         31.6940  -35.1560   19.6830 O.2   327  GLY327     -0.2717
    174  N         32.7460  -37.0690   20.3000 N.am  328  ARG328     -0.1979
    175  CA        33.5210  -36.3900   21.3300 C.3   328  ARG328      0.1597
    176  C         34.4660  -35.3590   20.7560 C.2   328  ARG328      0.2287
    177  O         34.6860  -34.3160   21.3870 O.2   328  ARG328     -0.2864
    178  CB        34.2820  -37.3380   22.2510 C.3   328  ARG328      0.0334
    179  CG        33.4150  -38.3640   22.9500 C.3   328  ARG328      0.0492
    180  CD        34.2490  -39.3340   23.8100 C.3   328  ARG328      0.2205
    181  NE        34.7680  -38.5360   24.9740 N.pl3 328  ARG328     -0.0865
    182  CZ        35.9720  -38.8920   25.4650 C.cat 328  ARG328      0.5346
    183  NH1       36.6070  -39.9640   25.0190 N.pl3 328  ARG328      0.1354
    184  NH2       36.4460  -38.2910   26.5400 N.pl3 328  ARG328      0.1354
    185  N         31.8980  -32.2870   20.5420 N.3   331  SER331     -0.1202
    186  CA        31.1590  -31.9010   21.7260 C.3   331  SER331      0.2020
    187  C         31.8790  -31.1060   22.8010 C.2   331  SER331      0.2618
    188  O         31.3020  -30.1410   23.3360 O.2   331  SER331     -0.2717
    189  CB        30.4960  -33.1760   22.3140 C.3   331  SER331      0.2103
    190  OG        29.8290  -32.8390   23.5380 O.3   331  SER331     -0.2182
    191  N         33.1050  -31.4780   23.1220 N.am  332  TYR332     -0.1975
    192  CA        33.8090  -30.7770   24.2140 C.3   332  TYR332      0.1639
    193  C         34.2180  -29.3770   23.8340 C.2   332  TYR332      0.2290
    194  O         33.9330  -28.4080   24.4980 O.2   332  TYR332     -0.2864
    195  CB        35.1060  -31.5780   24.5200 C.3   332  TYR332      0.0560
    196  CG        34.8690  -32.8830   25.2370 C.ar  332  TYR332     -0.0198
    197  CD1       35.2110  -33.0680   26.5880 C.ar  332  TYR332     -0.0009
    198  CD2       34.2900  -33.9260   24.5370 C.ar  332  TYR332     -0.0009
    199  CE1       35.0440  -34.3270   27.1680 C.ar  332  TYR332      0.0417
    200  CE2       34.0830  -35.1530   25.1330 C.ar  332  TYR332      0.0417
    201  CZ        34.4660  -35.3290   26.4480 C.ar  332  TYR332      0.1957
    202  OH        34.1390  -36.5960   26.9460 O.3   332  TYR332     -0.2866
    203  N         30.8300  -27.4140   23.7180 N.3   335  THR335     -0.1203
    204  CA        30.2890  -27.0100   25.0400 C.3   335  THR335      0.1994
    205  C         31.2040  -25.9530   25.6630 C.2   335  THR335      0.2617
    206  O         30.7720  -25.1080   26.4360 O.2   335  THR335     -0.2717
    207  CB        30.0530  -28.2230   25.9630 C.3   335  THR335      0.1784
    208  OG1       29.1820  -27.8370   27.0430 O.3   335  THR335     -0.2211
    209  CG2       31.3520  -28.7240   26.6290 C.3   335  THR335      0.0376
    210  N         32.5270  -26.0370   25.5010 N.am  336  GLN336     -0.1979
    211  CA        33.4550  -25.0740   26.0940 C.3   336  GLN336      0.1601
    212  C         33.3720  -23.6730   25.4770 C.2   336  GLN336      0.2287
    213  O         33.4830  -22.7170   26.2410 O.2   336  GLN336     -0.2864
    214  CB        34.9000  -25.6120   26.0380 C.3   336  GLN336      0.0394
    215  CG        35.0970  -26.7450   27.0560 C.3   336  GLN336      0.0908
    216  CD        36.1000  -27.8200   26.6200 C.2   336  GLN336      0.2608
    217  OE1       36.8490  -27.6310   25.6720 O.2   336  GLN336     -0.2717
    218  NE2       36.0600  -28.9780   27.2960 N.am  336  GLN336     -0.0878
    219  N         30.3730  -22.7680   27.8040 N.3   339  ARG339     -0.1245
    220  CA        30.5960  -22.7580   29.2750 C.3   339  ARG339      0.1563
    221  C         31.6030  -21.6840   29.6830 C.2   339  ARG339      0.2260
    222  O         31.5040  -21.0280   30.7260 O.2   339  ARG339     -0.2867
    223  CB        31.0900  -24.1340   29.7100 C.3   339  ARG339      0.0307
    224  CG        31.4020  -24.2690   31.2100 C.3   339  ARG339      0.0489
    225  CD        31.5450  -25.7330   31.5690 C.3   339  ARG339      0.2205
    226  NE        32.8310  -26.3450   31.1520 N.pl3 339  ARG339     -0.0865
    227  CZ        34.0360  -26.1420   31.6650 C.cat 339  ARG339      0.5346
    228  NH1       35.1200  -26.8070   31.2250 N.pl3 339  ARG339      0.1354
    229  NH2       34.1600  -25.3020   32.7120 N.pl3 339  ARG339      0.1354
@<TRIPOS>BOND
     1   170   171    1
     2   171   172    1
     3   162   163    1
     4   103   104    1
     5   172   173    2
     6   172   174   am
     7   107   104    1
     8   105   104    1
     9   105   106    2
    10   163   164    1
    11   163   166    1
    12   164   165    2
    13   174   175    1
    14   185   186    1
    15   176   175    1
    16   176   177    2
    17   166   167    1
    18   175   178    1
    19   186   189    1
    20   186   187    1
    21   141   142    1
    22   141   138    1
    23   139   138    1
    24   139   140    2
    25   178   179    1
    26   143   142   ar
    27   143   145   ar
    28   189   190    1
    29   142   144   ar
    30   168   167    1
    31   167   169    1
    32   138   137    1
    33   187   191   am
    34   187   188    2
    35   145   146   ar
    36   179   180    1
    37   125   124    1
    38   125   119    1
    39   108   109    1
    40   124   123    1
    41   144   146   ar
    42   191   192    1
    43   203   204    1
    44   180   181    1
    45   193   192    1
    46   193   194    2
    47   123   120    1
    48   137   132   am
    49   112   109    1
    50   112   113    1
    51   192   195    1
    52   109   110    1
    53   119   110   am
    54   119   120    1
    55   133   132    2
    56   195   196    1
    57   198   200   ar
    58   198   196   ar
    59   132   131    1
    60   181   182    2
    61   183   182    1
    62   204   205    1
    63   204   207    1
    64   110   111    2
    65   120   121    1
    66   200   201   ar
    67   196   197   ar
    68   182   184    1
    69   113   115   ar
    70   113   114   ar
    71   212   211    1
    72   212   213    2
    73   210   205   am
    74   210   211    1
    75   121   122    2
    76   205   206    2
    77   217   216    2
    78   115   117   ar
    79   207   209    1
    80   207   208    1
    81   129   128    2
    82   135   134    1
    83   214   211    1
    84   214   215    1
    85   114   116   ar
    86   131   134    1
    87   131   130    1
    88   201   202    1
    89   201   199   ar
    90   197   199   ar
    91   134   136    1
    92   216   215    1
    93   216   218   am
    94   128   130   am
    95   128   127    1
    96    98   100   ar
    97    98    97   ar
    98    96    97    1
    99    96    93    1
   100   117   118   ar
   101    95    94    2
   102   127   126    1
   103   156   157    2
   104   156   155    1
   105   100   102   ar
   106    79    77    1
   107   116   118   ar
   108    97    99   ar
   109    73    74    1
   110    94    93    1
   111    92    93    1
   112    76    75    2
   113    77    74    1
   114    77    78    1
   115   219   220    1
   116    74    75    1
   117   155   154    1
   118   155   158    1
   119   102   101   ar
   120    75    80   am
   121    99   101   ar
   122    17    16    1
   123   220   221    1
   124   220   223    1
   125   158   159    1
   126   221   222    2
   127   223   224    1
   128    80    81    1
   129    18    16    1
   130    81    82    1
   131    16    13    1
   132    25    23    1
   133   160   159    1
   134   160   161    1
   135   226   225    1
   136   226   227    2
   137   224   225    1
   138   228   227    1
   139    82    84   am
   140    82    83    2
   141   149   150    2
   142   149   148    1
   143    13    12    1
   144    13    14    1
   145    84    85    1
   146    24    23    1
   147   227   229    1
   148    91    89   am
   149    12     3   am
   150    23    20    1
   151    72    69    1
   152    14    19   am
   153    14    15    2
   154    19    20    1
   155    69    70    1
   156    69    68    1
   157    89    88    1
   158    89    90    2
   159    88    85    1
   160    60    59    2
   161    70    71    2
   162   153   151    1
   163    35    33   ar
   164    35    34   ar
   165   148   151    1
   166   148   147    1
   167    33    31   ar
   168    85    86    1
   169    87    86    2
   170    20    21    1
   171     3     2    1
   172     3     4    2
   173    22    21    2
   174     2     5    1
   175     2     1    1
   176     6     5    1
   177     6     7    1
   178    68    59   am
   179    59    58    1
   180   151   152    1
   181    21    26   am
   182    34    32   ar
   183    31    32   ar
   184    31    30    1
   185     8     7    1
   186     8     9    2
   187    11     9    1
   188    30    27    1
   189     9    10    1
   190    57    58    1
   191    57    55   am
   192    26    27    1
   193    58    61    1
   194    61    62    1
   195    54    55    1
   196    54    53    1
   197    64    62   ar
   198    64    66   ar
   199    62    63   ar
   200    27    28    1
   201    66    67   ar
   202    55    56    2
   203    39    38    2
   204    45    44    1
   205    63    65   ar
   206    40    37    1
   207    40    41    1
   208    36    37    1
   209    28    29    2
   210    67    65   ar
   211    42    43    1
   212    42    41    1
   213    52    51    1
   214    37    38    1
   215    44    43    2
   216    44    46    1
   217    51    48    1
   218    47    48    1
   219    50    49    2
   220    48    49    1
