@<TRIPOS>MOLECULE
tmp/1m7yA00.pdb
 196 186 0 0 0
SMALL
GASTEIGER

@<TRIPOS>ATOM
      1  N          8.6630    6.3360   23.0830 N.3    10  TYR10      -0.1241
      2  CA         9.4920    5.1400   22.9860 C.3    10  TYR10       0.1605
      3  C          9.6180    4.4560   24.3440 C.2    10  TYR10       0.2264
      4  O          9.5370    3.2310   24.4420 O.2    10  TYR10      -0.2867
      5  CB        10.8760    5.5090   22.4400 C.3    10  TYR10       0.0534
      6  CG        11.9050    4.4040   22.5320 C.ar   10  TYR10      -0.0201
      7  CD1       12.0140    3.4410   21.5300 C.ar   10  TYR10      -0.0009
      8  CD2       12.7640    4.3140   23.6280 C.ar   10  TYR10      -0.0009
      9  CE1       12.9530    2.4160   21.6170 C.ar   10  TYR10       0.0417
     10  CE2       13.7060    3.2950   23.7230 C.ar   10  TYR10       0.0417
     11  CZ        13.7950    2.3500   22.7160 C.ar   10  TYR10       0.1957
     12  OH        14.7230    1.3410   22.8080 O.3    10  TYR10      -0.2866
     13  N          6.9160    1.2940   26.0650 N.3    14  TRP14      -0.1241
     14  CA         7.6840    0.2080   26.6620 C.3    14  TRP14       0.1605
     15  C          7.1370   -0.1050   28.0530 C.2    14  TRP14       0.2264
     16  O          6.9390   -1.2690   28.4060 O.2    14  TRP14      -0.2867
     17  CB         9.1610    0.6140   26.7430 C.3    14  TRP14       0.0550
     18  CG        10.0890   -0.4420   27.2750 C.ar   14  TRP14       0.0003
     19  CD1        9.7880   -1.7470   27.5500 C.ar   14  TRP14       0.0946
     20  CD2       11.4790   -0.2790   27.5840 C.ar   14  TRP14       0.0152
     21  NE1       10.9030   -2.4040   28.0130 N.ar   14  TRP14      -0.2442
     22  CE2       11.9560   -1.5260   28.0430 C.ar   14  TRP14       0.0810
     23  CE3       12.3690    0.8030   27.5180 C.ar   14  TRP14       0.0012
     24  CZ2       13.2840   -1.7240   28.4350 C.ar   14  TRP14       0.0191
     25  CZ3       13.6910    0.6070   27.9080 C.ar   14  TRP14       0.0001
     26  CH2       14.1340   -0.6480   28.3610 C.ar   14  TRP14       0.0015
     27  N         10.9550   -2.6470   20.6320 N.3    36  LEU36      -0.1231
     28  CA        12.3540   -2.7360   21.0510 C.3    36  LEU36       0.1693
     29  C         13.1720   -3.5260   20.0370 C.2    36  LEU36       0.2592
     30  O         12.8100   -4.6430   19.6650 O.2    36  LEU36      -0.2718
     31  CB        12.4470   -3.3960   22.4290 C.3    36  LEU36       0.0284
     32  CG        11.6420   -2.6860   23.5230 C.3    36  LEU36       0.0019
     33  CD1       11.7520   -3.4590   24.8290 C.3    36  LEU36       0.0001
     34  CD2       12.1570   -1.2630   23.6930 C.3    36  LEU36       0.0001
     35  N         14.2830   -2.9430   19.6000 N.am   37  ALA37      -0.1966
     36  CA        15.1340   -3.5790   18.6010 C.3    37  ALA37       0.1728
     37  C         16.0530   -4.6550   19.1600 C.2    37  ALA37       0.2616
     38  O         17.2070   -4.3860   19.4840 O.2    37  ALA37      -0.2715
     39  CB        15.9590   -2.5180   17.8770 C.3    37  ALA37       0.0334
     40  N         15.5390   -5.8770   19.2730 N.am   38  GLU38      -0.1977
     41  CA        16.3490   -6.9840   19.7660 C.3    38  GLU38       0.1602
     42  C         16.2260   -8.1490   18.7870 C.2    38  GLU38       0.2287
     43  O         15.2720   -8.2200   18.0080 O.2    38  GLU38      -0.2864
     44  CB        15.9070   -7.4080   21.1690 C.3    38  GLU38       0.0415
     45  CG        15.9100   -6.2840   22.2180 C.3    38  GLU38       0.1163
     46  CD        17.2660   -5.5990   22.4030 C.2    38  GLU38       0.3649
     47  OE1       18.3090   -6.1920   22.0540 O.co2  38  GLU38      -0.2457
     48  OE2       17.2820   -4.4590   22.9230 O.co2  38  GLU38      -0.2457
     49  N         28.9400   -2.0400   26.0130 N.3   110  GLY110     -0.1210
     50  CA        27.8900   -1.7810   25.0400 C.3   110  GLY110      0.1956
     51  C         28.1350   -0.5290   24.2170 C.2   110  GLY110      0.2612
     52  O         28.9880    0.2910   24.5640 O.2   110  GLY110     -0.2717
     53  N         27.4000   -0.3810   23.1190 N.am  111  ALA111     -0.1965
     54  CA        27.5420    0.8020   22.2720 C.3   111  ALA111      0.1728
     55  C         26.9860    2.0230   23.0120 C.2   111  ALA111      0.2616
     56  O         27.3310    3.1650   22.6990 O.2   111  ALA111     -0.2715
     57  CB        26.8100    0.5940   20.9420 C.3   111  ALA111      0.0334
     58  N         26.1160    1.7810   23.9870 N.am  112  THR112     -0.1951
     59  CA        25.5650    2.8760   24.7850 C.3   112  THR112      0.1897
     60  C         26.7530    3.5900   25.4230 C.2   112  THR112      0.2313
     61  O         26.8410    4.8170   25.4050 O.2   112  THR112     -0.2863
     62  CB        24.6370    2.3480   25.9020 C.3   112  THR112      0.1794
     63  OG1       23.4900    1.7310   25.3050 O.3   112  THR112     -0.2208
     64  CG2       24.1850    3.4880   26.8290 C.3   112  THR112      0.0378
     65  N         29.2500    5.1940   22.5050 N.3   115  ASN115     -0.1240
     66  CA        28.8400    6.4810   21.9530 C.3   115  ASN115      0.1653
     67  C         29.0460    7.6240   22.9340 C.2   115  ASN115      0.2266
     68  O         29.5210    8.6930   22.5440 O.2   115  ASN115     -0.2867
     69  CB        27.3800    6.4380   21.4950 C.3   115  ASN115      0.1155
     70  CG        27.2160    5.7490   20.1510 C.2   115  ASN115      0.2627
     71  OD1       27.9880    5.9890   19.2280 O.2   115  ASN115     -0.2716
     72  ND2       26.2010    4.9020   20.0320 N.am  115  ASN115     -0.0877
     73  N         17.9080    6.9420   16.4790 N.3   136  TYR136     -0.1241
     74  CA        17.6700    6.1310   17.6690 C.3   136  TYR136      0.1605
     75  C         17.3280    7.0160   18.8760 C.2   136  TYR136      0.2264
     76  O         18.1320    7.8460   19.2880 O.2   136  TYR136     -0.2867
     77  CB        18.9300    5.2950   17.9300 C.3   136  TYR136      0.0534
     78  CG        19.0030    4.6390   19.2880 C.ar  136  TYR136     -0.0201
     79  CD1       17.9460    3.8770   19.7770 C.ar  136  TYR136     -0.0009
     80  CD2       20.1550    4.7540   20.0700 C.ar  136  TYR136     -0.0009
     81  CE1       18.0310    3.2390   21.0150 C.ar  136  TYR136      0.0417
     82  CE2       20.2530    4.1230   21.3020 C.ar  136  TYR136      0.0417
     83  CZ        19.1900    3.3670   21.7690 C.ar  136  TYR136      0.1957
     84  OH        19.2980    2.7290   22.9820 O.3   136  TYR136     -0.2866
     85  N         19.7850    8.1250   21.7720 N.3   139  PHE139     -0.1241
     86  CA        20.8270    9.1370   21.6150 C.3   139  PHE139      0.1605
     87  C         20.5570   10.4030   22.4220 C.2   139  PHE139      0.2264
     88  O         21.4910   11.0810   22.8400 O.2   139  PHE139     -0.2867
     89  CB        21.0030    9.5360   20.1400 C.3   139  PHE139      0.0534
     90  CG        21.7090    8.5060   19.2960 C.ar  139  PHE139     -0.0203
     91  CD1       22.6230    7.6180   19.8560 C.ar  139  PHE139     -0.0042
     92  CD2       21.4910    8.4590   17.9230 C.ar  139  PHE139     -0.0042
     93  CE1       23.3080    6.6980   19.0540 C.ar  139  PHE139     -0.0003
     94  CE2       22.1670    7.5510   17.1170 C.ar  139  PHE139     -0.0003
     95  CZ        23.0760    6.6690   17.6800 C.ar  139  PHE139     -0.0000
     96  N         22.1150    9.1950   25.7480 N.3   142  ASP142     -0.1239
     97  CA        23.5020    8.7720   25.5810 C.3   142  ASP142      0.1674
     98  C         24.4920    9.8520   25.2000 C.2   142  ASP142      0.2266
     99  O         25.5840    9.9270   25.7620 O.2   142  ASP142     -0.2867
    100  CB        23.6070    7.6680   24.5220 C.3   142  ASP142      0.1410
    101  CG        22.7680    6.4520   24.8480 C.2   142  ASP142      0.3668
    102  OD1       22.2160    6.3680   25.9600 O.co2 142  ASP142     -0.2456
    103  OD2       22.6670    5.5630   23.9740 O.co2 142  ASP142     -0.2456
    104  N         24.1410    6.5160   11.7920 N.3   189  THR189     -0.1218
    105  CA        23.9020    5.1250   12.1180 C.3   189  THR189      0.1862
    106  C         23.8040    4.4220   10.7750 C.2   189  THR189      0.2287
    107  O         22.9330    4.7340    9.9640 O.2   189  THR189     -0.2866
    108  CB        22.6130    4.9720   12.9310 C.3   189  THR189      0.1770
    109  OG1       22.7180    5.7700   14.1240 O.3   189  THR189     -0.2211
    110  CG2       22.4130    3.5250   13.3310 C.3   189  THR189      0.0375
    111  N         19.0060    3.0310   12.1230 N.3   193  ASN193     -0.1240
    112  CA        17.9630    2.7250   13.0910 C.3   193  ASN193      0.1653
    113  C         17.3640    4.1300   13.1270 C.2   193  ASN193      0.2266
    114  O         18.0660    5.0950   13.4390 O.2   193  ASN193     -0.2867
    115  CB        18.5310    2.3460   14.4690 C.3   193  ASN193      0.1155
    116  CG        17.4410    2.1920   15.5240 C.2   193  ASN193      0.2627
    117  OD1       16.2500    2.2790   15.2250 O.2   193  ASN193     -0.2716
    118  ND2       17.8480    1.9620   16.7680 N.am  193  ASN193     -0.0877
    119  N         27.9370    4.7140   13.7960 N.3   221  ASP221     -0.1239
    120  CA        27.4640    3.6660   14.6930 C.3   221  ASP221      0.1674
    121  C         27.0080    2.5530   13.7550 C.2   221  ASP221      0.2266
    122  O         25.9490    2.6470   13.1320 O.2   221  ASP221     -0.2867
    123  CB        26.2890    4.1770   15.5310 C.3   221  ASP221      0.1410
    124  CG        25.7680    3.1390   16.5070 C.2   221  ASP221      0.3668
    125  OD1       25.8940    1.9270   16.2250 O.co2 221  ASP221     -0.2456
    126  OD2       25.2110    3.5380   17.5510 O.co2 221  ASP221     -0.2456
    127  N         26.3780   -0.6630   14.6020 N.3   223  ILE223     -0.1231
    128  CA        25.9170   -1.7810   15.4200 C.3   223  ILE223      0.1692
    129  C         25.0390   -2.7480   14.6110 C.2   223  ILE223      0.2592
    130  O         24.9290   -3.9210   14.9540 O.2   223  ILE223     -0.2718
    131  CB        25.1360   -1.2620   16.6590 C.3   223  ILE223      0.0266
    132  CG1       24.8290   -2.4140   17.6190 C.3   223  ILE223      0.0019
    133  CG2       23.8610   -0.5690   16.2160 C.3   223  ILE223      0.0020
    134  CD1       24.1930   -1.9590   18.9340 C.3   223  ILE223      0.0001
    135  N         24.4300   -2.2670   13.5300 N.am  224  TYR224     -0.1976
    136  CA        23.5750   -3.1300   12.7110 C.3   224  TYR224      0.1639
    137  C         24.2890   -3.6580   11.4710 C.2   224  TYR224      0.2290
    138  O         23.6660   -4.2710   10.6060 O.2   224  TYR224     -0.2864
    139  CB        22.2990   -2.3730   12.3010 C.3   224  TYR224      0.0560
    140  CG        21.3900   -2.0800   13.4760 C.ar  224  TYR224     -0.0198
    141  CD1       20.6820   -3.1040   14.1020 C.ar  224  TYR224     -0.0009
    142  CD2       21.3290   -0.8020   14.0320 C.ar  224  TYR224     -0.0009
    143  CE1       19.9460   -2.8700   15.2640 C.ar  224  TYR224      0.0417
    144  CE2       20.5930   -0.5590   15.2000 C.ar  224  TYR224      0.0417
    145  CZ        19.9140   -1.5980   15.8100 C.ar  224  TYR224      0.1957
    146  OH        19.2470   -1.3980   16.9970 O.3   224  TYR224     -0.2866
    147  N         28.9280   -3.1620   18.4490 N.3   261  SER261     -0.1217
    148  CA        28.4620   -3.8610   19.6400 C.3   261  SER261      0.1889
    149  C         27.9460   -5.2250   19.2130 C.2   261  SER261      0.2288
    150  O         27.6250   -5.4140   18.0450 O.2   261  SER261     -0.2866
    151  CB        27.3410   -3.0500   20.2970 C.3   261  SER261      0.2089
    152  OG        26.4330   -3.8680   21.0050 O.3   261  SER261     -0.2183
    153  N         25.2950   -6.5530   20.5860 N.3   263  SER263     -0.1202
    154  CA        23.9160   -6.5990   21.0460 C.3   263  SER263      0.2020
    155  C         22.8620   -6.9950   20.0410 C.2   263  SER263      0.2618
    156  O         21.9160   -7.7150   20.3740 O.2   263  SER263     -0.2717
    157  CB        23.5240   -5.2450   21.6250 C.3   263  SER263      0.2103
    158  OG        24.2580   -4.9930   22.8000 O.3   263  SER263     -0.2182
    159  N         23.0300   -6.5320   18.8120 N.am  264  LYS264     -0.1979
    160  CA        22.0270   -6.7650   17.7840 C.3   264  LYS264      0.1596
    161  C         22.2290   -7.9080   16.8060 C.2   264  LYS264      0.2287
    162  O         21.2640   -8.5890   16.4650 O.2   264  LYS264     -0.2864
    163  CB        21.7910   -5.4530   17.0330 C.3   264  LYS264      0.0298
    164  CG        21.5930   -4.2710   17.9790 C.3   264  LYS264      0.0038
    165  CD        20.4660   -4.5270   18.9900 C.3   264  LYS264      0.0206
    166  CE        20.4150   -3.4330   20.0600 C.3   264  LYS264      0.1093
    167  NZ        19.4050   -3.7160   21.1300 N.3   264  LYS264     -0.1314
    168  N         22.7470   -8.4350   24.0500 N.3   269  PRO269     -0.2116
    169  CA        22.7640   -7.1520   24.7610 C.3   269  PRO269      0.1372
    170  C         23.0820   -7.2390   26.2490 C.2   269  PRO269      0.2244
    171  O         23.6900   -6.3320   26.8070 O.2   269  PRO269     -0.2868
    172  CB        21.3640   -6.5920   24.5050 C.3   269  PRO269      0.0268
    173  CG        20.5230   -7.8390   24.3820 C.3   269  PRO269      0.0207
    174  CD        21.3970   -8.7280   23.5300 C.3   269  PRO269      0.0892
    175  N         26.8330   -6.8450   27.4230 N.3   272  ARG272     -0.1245
    176  CA        27.4520   -5.5230   27.3230 C.3   272  ARG272      0.1563
    177  C         28.7980   -5.4810   26.6000 C.2   272  ARG272      0.2260
    178  O         29.8030   -5.0400   27.1650 O.2   272  ARG272     -0.2867
    179  CB        27.6120   -4.9140   28.7280 C.3   272  ARG272      0.0307
    180  CG        26.3640   -5.0170   29.6100 C.3   272  ARG272      0.0489
    181  CD        25.1110   -4.5560   28.8700 C.3   272  ARG272      0.2205
    182  NE        25.2130   -3.1720   28.4080 N.pl3 272  ARG272     -0.0865
    183  CZ        24.7020   -2.7220   27.2630 C.cat 272  ARG272      0.5346
    184  NH1       24.0520   -3.5460   26.4500 N.pl3 272  ARG272      0.1354
    185  NH2       24.8440   -1.4470   26.9230 N.pl3 272  ARG272      0.1354
    186  N          8.1860    2.8840   13.7850 N.3   398  ARG398     -0.1245
    187  CA         9.2080    1.8490   13.7290 C.3   398  ARG398      0.1563
    188  C          8.5650    0.6030   14.3240 C.2   398  ARG398      0.2260
    189  O          8.0030    0.6430   15.4200 O.2   398  ARG398     -0.2867
    190  CB        10.4530    2.2190   14.5420 C.3   398  ARG398      0.0307
    191  CG        11.6000    1.2310   14.2940 C.3   398  ARG398      0.0489
    192  CD        12.7770    1.4170   15.2500 C.3   398  ARG398      0.2205
    193  NE        12.4830    0.9480   16.6010 N.pl3 398  ARG398     -0.0865
    194  CZ        13.4090    0.7700   17.5400 C.cat 398  ARG398      0.5346
    195  NH1       14.6820    1.0210   17.2670 N.pl3 398  ARG398      0.1354
    196  NH2       13.0620    0.3430   18.7450 N.pl3 398  ARG398      0.1354
@<TRIPOS>BOND
     1   107   106    2
     2   138   137    2
     3   106   105    1
     4   137   136    1
     5   104   105    1
     6   105   108    1
     7   111   112    1
     8   139   136    1
     9   139   140    1
    10   136   135    1
    11   108   110    1
    12   108   109    1
    13   112   113    1
    14   112   115    1
    15   113   114    2
    16   122   121    2
    17   140   142   ar
    18   140   141   ar
    19   135   129   am
    20   187   186    1
    21   187   188    1
    22   187   190    1
    23   121   120    1
    24   119   120    1
    25   142   144   ar
    26   141   143   ar
    27   191   190    1
    28   191   192    1
    29   188   189    2
    30   115   116    1
    31   127   128    1
    32   129   130    2
    33   129   128    1
    34   120   123    1
    35   144   145   ar
    36   117   116    2
    37   192   193    1
    38   143   145   ar
    39   128   131    1
    40   116   118   am
    41   123   124    1
    42   145   146    1
    43   133   131    1
    44   125   124   ar
    45   162   161    2
    46    73    74    1
    47   124   126   ar
    48   193   194    2
    49   131   132    1
    50   161   160    1
    51   163   160    1
    52   163   164    1
    53    94    95   ar
    54    94    92   ar
    55   195   194    1
    56   194   196    1
    57   132   134    1
    58    74    77    1
    59    74    75    1
    60    95    93   ar
    61   160   159    1
    62    39    36    1
    63    92    90   ar
    64    77    78    1
    65   164   165    1
    66    43    42    2
    67   150   149    2
    68   147   148    1
    69    36    37    1
    70    36    35    1
    71    42    41    1
    72   159   155   am
    73    75    76    2
    74   165   166    1
    75    93    91   ar
    76    37    40   am
    77    37    38    2
    78   149   148    1
    79    71    70    2
    80    40    41    1
    81    78    79   ar
    82    78    80   ar
    83    90    91   ar
    84    90    89    1
    85    35    29   am
    86   148   151    1
    87    30    29    2
    88    41    44    1
    89    79    81   ar
    90    72    70   am
    91    29    28    1
    92   155   156    2
    93   155   154    1
    94   166   167    1
    95    80    82   ar
    96    89    86    1
    97    70    69    1
    98   151   152    1
    99   153   154    1
   100    27    28    1
   101    57    54    1
   102    81    83   ar
   103   154   157    1
   104    28    31    1
   105    44    45    1
   106    82    83   ar
   107    69    66    1
   108     7     9   ar
   109     7     6   ar
   110    86    85    1
   111    86    87    1
   112     9    11   ar
   113   157   158    1
   114    83    84    1
   115    66    65    1
   116    66    67    1
   117    47    46   ar
   118    45    46    1
   119    54    55    1
   120    54    53    1
   121    46    48   ar
   122    87    88    2
   123    31    32    1
   124     5     6    1
   125     5     2    1
   126     6     8   ar
   127    68    67    2
   128    56    55    2
   129    11    12    1
   130    11    10   ar
   131     2     1    1
   132     2     3    1
   133    55    58   am
   134    53    51   am
   135    32    34    1
   136    32    33    1
   137   174   168    1
   138   174   173    1
   139     8    10   ar
   140   103   101   ar
   141    58    59    1
   142   168   169    1
   143    51    52    2
   144    51    50    1
   145     3     4    2
   146   173   172    1
   147   172   169    1
   148   100   101    1
   149   100    97    1
   150   169   170    1
   151    59    60    1
   152    59    62    1
   153   101   102   ar
   154    50    49    1
   155    98    97    1
   156    98    99    2
   157    63    62    1
   158    61    60    2
   159    97    96    1
   160    62    64    1
   161    13    14    1
   162   170   171    2
   163   184   183    1
   164   177   178    2
   165   177   176    1
   166    14    17    1
   167    14    15    1
   168    17    18    1
   169   185   183    1
   170   183   182    2
   171    18    19   ar
   172    18    20   ar
   173   176   175    1
   174   176   179    1
   175    23    20   ar
   176    23    25   ar
   177    19    21   ar
   178    20    22   ar
   179    25    26   ar
   180    21    22   ar
   181    22    24   ar
   182    15    16    2
   183    26    24   ar
   184   182   181    1
   185   179   180    1
   186   181   180    1
