@<TRIPOS>MOLECULE
tmp/1m7yA01.pdb
 107 103 0 0 0
SMALL
GASTEIGER

@<TRIPOS>ATOM
      1  N          8.6630    6.3360   23.0830 N.3    10  TYR10      -0.1227
      2  CA         9.4920    5.1400   22.9860 C.3    10  TYR10       0.1736
      3  C          9.6180    4.4560   24.3440 C.2    10  TYR10       0.2595
      4  O          9.5370    3.2310   24.4420 O.2    10  TYR10      -0.2718
      5  CB        10.8760    5.5090   22.4400 C.3    10  TYR10       0.0548
      6  CG        11.9050    4.4040   22.5320 C.ar   10  TYR10      -0.0200
      7  CD1       12.0140    3.4410   21.5300 C.ar   10  TYR10      -0.0009
      8  CD2       12.7640    4.3140   23.6280 C.ar   10  TYR10      -0.0009
      9  CE1       12.9530    2.4160   21.6170 C.ar   10  TYR10       0.0417
     10  CE2       13.7060    3.2950   23.7230 C.ar   10  TYR10       0.0417
     11  CZ        13.7950    2.3500   22.7160 C.ar   10  TYR10       0.1957
     12  OH        14.7230    1.3410   22.8080 O.3    10  TYR10      -0.2866
     13  N          9.8140    5.2530   25.3890 N.am   11  PHE11      -0.1976
     14  CA         9.9360    4.7250   26.7420 C.3    11  PHE11       0.1639
     15  C          8.5530    4.5280   27.3550 C.2    11  PHE11       0.2290
     16  O          8.3640    3.6860   28.2320 O.2    11  PHE11      -0.2864
     17  CB        10.7530    5.6810   27.6150 C.3    11  PHE11       0.0560
     18  CG        12.2160    5.7190   27.2720 C.ar   11  PHE11      -0.0200
     19  CD1       13.0230    4.6040   27.4860 C.ar   11  PHE11      -0.0042
     20  CD2       12.7900    6.8680   26.7360 C.ar   11  PHE11      -0.0042
     21  CE1       14.3820    4.6340   27.1730 C.ar   11  PHE11      -0.0003
     22  CE2       14.1470    6.9080   26.4200 C.ar   11  PHE11      -0.0003
     23  CZ        14.9440    5.7880   26.6390 C.ar   11  PHE11      -0.0000
     24  N          6.9160    1.2940   26.0650 N.3    14  TRP14      -0.1241
     25  CA         7.6840    0.2080   26.6620 C.3    14  TRP14       0.1605
     26  C          7.1370   -0.1050   28.0530 C.2    14  TRP14       0.2264
     27  O          6.9390   -1.2690   28.4060 O.2    14  TRP14      -0.2867
     28  CB         9.1610    0.6140   26.7430 C.3    14  TRP14       0.0550
     29  CG        10.0890   -0.4420   27.2750 C.ar   14  TRP14       0.0003
     30  CD1        9.7880   -1.7470   27.5500 C.ar   14  TRP14       0.0946
     31  CD2       11.4790   -0.2790   27.5840 C.ar   14  TRP14       0.0152
     32  NE1       10.9030   -2.4040   28.0130 N.ar   14  TRP14      -0.2442
     33  CE2       11.9560   -1.5260   28.0430 C.ar   14  TRP14       0.0810
     34  CE3       12.3690    0.8030   27.5180 C.ar   14  TRP14       0.0012
     35  CZ2       13.2840   -1.7240   28.4350 C.ar   14  TRP14       0.0191
     36  CZ3       13.6910    0.6070   27.9080 C.ar   14  TRP14       0.0001
     37  CH2       14.1340   -0.6480   28.3610 C.ar   14  TRP14       0.0015
     38  N         15.5390   -5.8770   19.2730 N.3    38  GLU38      -0.1245
     39  CA        16.3490   -6.9840   19.7660 C.3    38  GLU38       0.1567
     40  C         16.2260   -8.1490   18.7870 C.2    38  GLU38       0.2260
     41  O         15.2720   -8.2200   18.0080 O.2    38  GLU38      -0.2867
     42  CB        15.9070   -7.4080   21.1690 C.3    38  GLU38       0.0388
     43  CG        15.9100   -6.2840   22.2180 C.3    38  GLU38       0.1160
     44  CD        17.2660   -5.5990   22.4030 C.2    38  GLU38       0.3649
     45  OE1       18.3090   -6.1920   22.0540 O.co2  38  GLU38      -0.2457
     46  OE2       17.2820   -4.4590   22.9230 O.co2  38  GLU38      -0.2457
     47  N         26.1160    1.7810   23.9870 N.3   112  THR112     -0.1218
     48  CA        25.5650    2.8760   24.7850 C.3   112  THR112      0.1862
     49  C         26.7530    3.5900   25.4230 C.2   112  THR112      0.2287
     50  O         26.8410    4.8170   25.4050 O.2   112  THR112     -0.2866
     51  CB        24.6370    2.3480   25.9020 C.3   112  THR112      0.1770
     52  OG1       23.4900    1.7310   25.3050 O.3   112  THR112     -0.2211
     53  CG2       24.1850    3.4880   26.8290 C.3   112  THR112      0.0375
     54  N         17.9080    6.9420   16.4790 N.3   136  TYR136     -0.1241
     55  CA        17.6700    6.1310   17.6690 C.3   136  TYR136      0.1605
     56  C         17.3280    7.0160   18.8760 C.2   136  TYR136      0.2264
     57  O         18.1320    7.8460   19.2880 O.2   136  TYR136     -0.2867
     58  CB        18.9300    5.2950   17.9300 C.3   136  TYR136      0.0534
     59  CG        19.0030    4.6390   19.2880 C.ar  136  TYR136     -0.0201
     60  CD1       17.9460    3.8770   19.7770 C.ar  136  TYR136     -0.0009
     61  CD2       20.1550    4.7540   20.0700 C.ar  136  TYR136     -0.0009
     62  CE1       18.0310    3.2390   21.0150 C.ar  136  TYR136      0.0417
     63  CE2       20.2530    4.1230   21.3020 C.ar  136  TYR136      0.0417
     64  CZ        19.1900    3.3670   21.7690 C.ar  136  TYR136      0.1957
     65  OH        19.2980    2.7290   22.9820 O.3   136  TYR136     -0.2866
     66  N         17.4270    6.6100   21.9560 N.3   138  GLY138     -0.1225
     67  CA        18.3980    6.5650   23.0340 C.3   138  GLY138      0.1811
     68  C         19.4880    7.6200   22.9670 C.2   138  GLY138      0.2280
     69  O         20.0620    7.9730   23.9960 O.2   138  GLY138     -0.2866
     70  N         19.7370   10.6770   25.3140 N.3   141  ARG141     -0.1245
     71  CA        20.2940   10.5100   26.6510 C.3   141  ARG141      0.1563
     72  C         21.7810   10.2120   26.5370 C.2   141  ARG141      0.2260
     73  O         22.6050   10.8870   27.1390 O.2   141  ARG141     -0.2867
     74  CB        19.6240    9.3460   27.3860 C.3   141  ARG141      0.0307
     75  CG        20.3580    8.9280   28.6630 C.3   141  ARG141      0.0489
     76  CD        20.0040    7.5070   29.0630 C.3   141  ARG141      0.2205
     77  NE        20.3670    6.5560   28.0120 N.pl3 141  ARG141     -0.0865
     78  CZ        19.9570    5.2930   27.9700 C.cat 141  ARG141      0.5346
     79  NH1       19.1660    4.8180   28.9240 N.pl3 141  ARG141      0.1354
     80  NH2       20.3240    4.5080   26.9650 N.pl3 141  ARG141      0.1354
     81  N         23.0300   -6.5320   18.8120 N.3   264  LYS264     -0.1245
     82  CA        22.0270   -6.7650   17.7840 C.3   264  LYS264      0.1561
     83  C         22.2290   -7.9080   16.8060 C.2   264  LYS264      0.2260
     84  O         21.2640   -8.5890   16.4650 O.2   264  LYS264     -0.2867
     85  CB        21.7910   -5.4530   17.0330 C.3   264  LYS264      0.0271
     86  CG        21.5930   -4.2710   17.9790 C.3   264  LYS264      0.0035
     87  CD        20.4660   -4.5270   18.9900 C.3   264  LYS264      0.0206
     88  CE        20.4150   -3.4330   20.0600 C.3   264  LYS264      0.1093
     89  NZ        19.4050   -3.7160   21.1300 N.3   264  LYS264     -0.1314
     90  N         22.7470   -8.4350   24.0500 N.3   269  PRO269     -0.2116
     91  CA        22.7640   -7.1520   24.7610 C.3   269  PRO269      0.1372
     92  C         23.0820   -7.2390   26.2490 C.2   269  PRO269      0.2244
     93  O         23.6900   -6.3320   26.8070 O.2   269  PRO269     -0.2868
     94  CB        21.3640   -6.5920   24.5050 C.3   269  PRO269      0.0268
     95  CG        20.5230   -7.8390   24.3820 C.3   269  PRO269      0.0207
     96  CD        21.3970   -8.7280   23.5300 C.3   269  PRO269      0.0892
     97  N         26.8330   -6.8450   27.4230 N.3   272  ARG272     -0.1245
     98  CA        27.4520   -5.5230   27.3230 C.3   272  ARG272      0.1563
     99  C         28.7980   -5.4810   26.6000 C.2   272  ARG272      0.2260
    100  O         29.8030   -5.0400   27.1650 O.2   272  ARG272     -0.2867
    101  CB        27.6120   -4.9140   28.7280 C.3   272  ARG272      0.0307
    102  CG        26.3640   -5.0170   29.6100 C.3   272  ARG272      0.0489
    103  CD        25.1110   -4.5560   28.8700 C.3   272  ARG272      0.2205
    104  NE        25.2130   -3.1720   28.4080 N.pl3 272  ARG272     -0.0865
    105  CZ        24.7020   -2.7220   27.2630 C.cat 272  ARG272      0.5346
    106  NH1       24.0520   -3.5460   26.4500 N.pl3 272  ARG272      0.1354
    107  NH2       24.8440   -1.4470   26.9230 N.pl3 272  ARG272      0.1354
@<TRIPOS>BOND
     1    84    83    2
     2    54    55    1
     3    83    82    1
     4    85    82    1
     5    85    86    1
     6    55    58    1
     7    55    56    1
     8    82    81    1
     9    58    59    1
    10    86    87    1
    11    41    40    2
    12    40    39    1
    13    56    57    2
    14    87    88    1
    15    38    39    1
    16    59    60   ar
    17    59    61   ar
    18    39    42    1
    19    60    62   ar
    20    88    89    1
    21    61    63   ar
    22    62    64   ar
    23    42    43    1
    24    63    64   ar
    25     7     9   ar
    26     7     6   ar
    27     9    11   ar
    28    64    65    1
    29    66    67    1
    30    45    44   ar
    31    43    44    1
    32    44    46   ar
    33     5     6    1
    34     5     2    1
    35     6     8   ar
    36    11    12    1
    37    11    10   ar
    38    68    67    1
    39    68    69    2
    40     2     1    1
    41     2     3    1
    42    96    90    1
    43    96    95    1
    44     8    10   ar
    45    47    48    1
    46    90    91    1
    47     3     4    2
    48     3    13   am
    49    95    94    1
    50    94    91    1
    51    91    92    1
    52    48    49    1
    53    48    51    1
    54    52    51    1
    55    70    71    1
    56    13    14    1
    57    50    49    2
    58    51    53    1
    59    24    25    1
    60    92    93    2
    61    22    23   ar
    62    22    20   ar
    63   106   105    1
    64    72    71    1
    65    72    73    2
    66    99   100    2
    67    99    98    1
    68    23    21   ar
    69    71    74    1
    70    25    28    1
    71    25    26    1
    72    20    18   ar
    73    14    15    1
    74    14    17    1
    75    28    29    1
    76   107   105    1
    77    80    78    1
    78    21    19   ar
    79   105   104    2
    80    18    19   ar
    81    18    17    1
    82    29    30   ar
    83    29    31   ar
    84    98    97    1
    85    98   101    1
    86    15    16    2
    87    74    75    1
    88    34    31   ar
    89    34    36   ar
    90    30    32   ar
    91    31    33   ar
    92    36    37   ar
    93    78    77    2
    94    78    79    1
    95    77    76    1
    96    32    33   ar
    97    33    35   ar
    98    26    27    2
    99    37    35   ar
   100   104   103    1
   101    75    76    1
   102   101   102    1
   103   103   102    1
