@<TRIPOS>MOLECULE
tmp/1m8dB00.pdb
 81 78 0 0 0
SMALL
GASTEIGER

@<TRIPOS>ATOM
      1  N        131.7460   89.1030  106.5440 N.3    58  ASN58      -0.1240
      2  CA       132.2570   89.3810  107.8850 C.3    58  ASN58       0.1653
      3  C        131.9970   90.8310  108.2820 C.2    58  ASN58       0.2266
      4  O        131.5920   91.1060  109.4150 O.2    58  ASN58      -0.2867
      5  CB       133.7660   89.0880  107.9920 C.3    58  ASN58       0.1155
      6  CG       134.0840   87.5960  108.0650 C.2    58  ASN58       0.2627
      7  OD1      133.2380   86.7780  108.4320 O.2    58  ASN58      -0.2716
      8  ND2      135.3170   87.2430  107.7210 N.am   58  ASN58      -0.0877
      9  N        127.9990   91.3420  108.8170 N.3    61  TYR61      -0.1227
     10  CA       127.5610   90.7870  110.0990 C.3    61  TYR61       0.1736
     11  C        128.2450   91.4550  111.2760 C.2    61  TYR61       0.2596
     12  O        127.7160   91.4510  112.3820 O.2    61  TYR61      -0.2718
     13  CB       127.7720   89.2670  110.1590 C.3    61  TYR61       0.0548
     14  CG       126.6660   88.4880  109.4890 C.ar   61  TYR61      -0.0200
     15  CD1      125.4400   88.2850  110.1280 C.ar   61  TYR61      -0.0009
     16  CD2      126.8150   88.0110  108.1880 C.ar   61  TYR61      -0.0009
     17  CE1      124.3940   87.6360  109.4860 C.ar   61  TYR61       0.0417
     18  CE2      125.7710   87.3650  107.5380 C.ar   61  TYR61       0.0417
     19  CZ       124.5640   87.1830  108.1940 C.ar   61  TYR61       0.1957
     20  OH       123.5180   86.5520  107.5650 O.3    61  TYR61      -0.2866
     21  N        129.4100   92.0460  111.0240 N.am   62  GLY62      -0.1957
     22  CA       130.1440   92.7260  112.0740 C.3    62  GLY62       0.1869
     23  C        129.6540   94.1360  112.3520 C.2    62  GLY62       0.2309
     24  O        130.1350   94.7930  113.2780 O.2    62  GLY62      -0.2863
     25  N        125.3050   91.3600  117.8970 N.3    67  ALA67      -0.1231
     26  CA       125.8840   90.2420  117.1580 C.3    67  ALA67       0.1694
     27  C        124.9910   89.0070  117.0030 C.2    67  ALA67       0.2592
     28  O        124.3700   88.5420  117.9630 O.2    67  ALA67      -0.2718
     29  CB       127.2210   89.8490  117.7810 C.3    67  ALA67       0.0304
     30  N        124.9220   88.5020  115.7730 N.am   68  LYS68      -0.1966
     31  CA       124.1380   87.3090  115.4640 C.3    68  LYS68       0.1728
     32  C        125.0990   86.2230  114.9830 C.2    68  LYS68       0.2616
     33  O        125.1680   85.8990  113.7930 O.2    68  LYS68      -0.2715
     34  CB       123.0660   87.6090  114.4080 C.3    68  LYS68       0.0311
     35  CG       122.0720   88.6810  114.8480 C.3    68  LYS68       0.0038
     36  CD       120.7800   88.6550  114.0400 C.3    68  LYS68       0.0206
     37  CE       120.9850   89.0990  112.6050 C.3    68  LYS68       0.1093
     38  NZ       119.6960   89.1570  111.8590 N.3    68  LYS68      -0.1314
     39  N        125.8340   85.6690  115.9460 N.am   69  ILE69      -0.1977
     40  CA       126.8360   84.6310  115.7210 C.3    69  ILE69       0.1596
     41  C        126.4060   83.5100  114.7860 C.2    69  ILE69       0.2287
     42  O        127.1040   83.2070  113.8160 O.2    69  ILE69      -0.2864
     43  CB       127.2890   83.9980  117.0660 C.3    69  ILE69       0.0276
     44  CG1      127.8820   85.0680  117.9890 C.3    69  ILE69       0.0022
     45  CG2      128.3300   82.9120  116.8230 C.3    69  ILE69       0.0022
     46  CD1      129.1760   85.6960  117.4750 C.3    69  ILE69       0.0001
     47  N        125.6160   84.5470  111.0760 N.3    72  HIS72      -0.1226
     48  CA       126.8840   84.9090  110.4470 C.3    72  HIS72       0.1752
     49  C        127.5550   83.6640  109.8580 C.2    72  HIS72       0.2595
     50  O        127.8030   83.6020  108.6550 O.2    72  HIS72      -0.2718
     51  CB       127.8000   85.5940  111.4800 C.3    72  HIS72       0.0759
     52  CG       129.1260   86.0300  110.9350 C.ar   72  HIS72       0.0818
     53  ND1      130.1040   86.6020  111.7210 N.ar   72  HIS72      -0.2268
     54  CD2      129.6400   85.9680  109.6830 C.ar   72  HIS72       0.1154
     55  CE1      131.1620   86.8720  110.9760 C.ar   72  HIS72       0.1986
     56  NE2      130.9060   86.4960  109.7370 N.ar   72  HIS72      -0.2212
     57  N        127.8000   82.6620  110.7030 N.am   73  LEU73      -0.1980
     58  CA       128.4350   81.4190  110.2710 C.3    73  LEU73       0.1596
     59  C        127.6380   80.7310  109.1610 C.2    73  LEU73       0.2287
     60  O        128.1970   80.3190  108.1410 O.2    73  LEU73      -0.2864
     61  CB       128.6040   80.4600  111.4560 C.3    73  LEU73       0.0297
     62  CG       129.4350   80.9370  112.6530 C.3    73  LEU73       0.0022
     63  CD1      129.5690   79.8250  113.6820 C.3    73  LEU73       0.0001
     64  CD2      130.8050   81.3780  112.1900 C.3    73  LEU73       0.0001
     65  N        128.2090   82.5790  105.9900 N.3    76  LEU76      -0.1231
     66  CA       129.5880   82.3640  105.5440 C.3    76  LEU76       0.1693
     67  C        129.6760   81.0350  104.8100 C.2    76  LEU76       0.2591
     68  O        130.2680   80.9450  103.7350 O.2    76  LEU76      -0.2718
     69  CB       130.5510   82.3390  106.7350 C.3    76  LEU76       0.0284
     70  CG       130.9940   83.6780  107.3140 C.3    76  LEU76       0.0019
     71  CD1      131.8030   83.4460  108.5940 C.3    76  LEU76       0.0001
     72  CD2      131.7960   84.4580  106.2620 C.3    76  LEU76       0.0001
     73  N        129.0430   80.0170  105.3880 N.am   77  GLU77      -0.1979
     74  CA       129.0300   78.6800  104.8150 C.3    77  GLU77       0.1602
     75  C        128.2260   78.6350  103.5070 C.2    77  GLU77       0.2287
     76  O        128.7030   78.1200  102.4930 O.2    77  GLU77      -0.2864
     77  CB       128.4590   77.6980  105.8440 C.3    77  GLU77       0.0415
     78  CG       128.5120   76.2220  105.4280 C.3    77  GLU77       0.1163
     79  CD       128.0620   75.2550  106.5290 C.2    77  GLU77       0.3649
     80  OE1      127.9360   75.6650  107.7060 O.co2  77  GLU77      -0.2457
     81  OE2      127.8430   74.0680  106.2130 O.co2  77  GLU77      -0.2457
@<TRIPOS>BOND
     1    76    75    2
     2    75    74    1
     3    68    67    2
     4    67    73   am
     5    67    66    1
     6    74    73    1
     7    74    77    1
     8    78    77    1
     9    78    79    1
    10    66    65    1
    11    66    69    1
    12    81    79   ar
    13    72    70    1
    14    79    80   ar
    15     1     2    1
    16    69    70    1
    17    70    71    1
    18    18    16   ar
    19    18    19   ar
    20    20    19    1
    21     8     6   am
    22     2     5    1
    23     2     3    1
    24     5     6    1
    25     6     7    2
    26    60    59    2
    27    16    14   ar
    28    19    17   ar
    29     3     4    2
    30    50    49    2
    31     9    10    1
    32    59    58    1
    33    17    15   ar
    34    14    15   ar
    35    14    13    1
    36    54    56   ar
    37    54    52   ar
    38    56    55   ar
    39    49    48    1
    40    49    57   am
    41    10    13    1
    42    10    11    1
    43    58    57    1
    44    58    61    1
    45    48    47    1
    46    48    51    1
    47    52    51    1
    48    52    53   ar
    49    55    53   ar
    50    21    11   am
    51    21    22    1
    52    11    12    2
    53    61    62    1
    54    38    37    1
    55    22    23    1
    56    64    62    1
    57    23    24    2
    58    37    36    1
    59    62    63    1
    60    33    32    2
    61    42    41    2
    62    36    35    1
    63    34    35    1
    64    34    31    1
    65    41    40    1
    66    32    31    1
    67    32    39   am
    68    31    30    1
    69    40    39    1
    70    40    43    1
    71    30    27   am
    72    45    43    1
    73    27    26    1
    74    27    28    2
    75    43    44    1
    76    26    29    1
    77    26    25    1
    78    46    44    1
