@<TRIPOS>MOLECULE
tmp/1m8dB02.pdb
 86 86 0 0 0
SMALL
GASTEIGER

@<TRIPOS>ATOM
      1  N        133.8410  112.3610   97.8540 N.3   110  CYS110     -0.1235
      2  CA       132.5510  112.9450   98.2180 C.3   110  CYS110      0.1677
      3  C        132.5800  113.7550   99.5120 C.2   110  CYS110      0.2270
      4  O        132.9430  113.2470  100.5750 O.2   110  CYS110     -0.2867
      5  CB       131.4820  111.8500   98.3230 C.3   110  CYS110      0.0956
      6  SG       129.8510  112.4450   98.7750 S.3   110  CYS110     -0.0801
      7  N        121.6580  116.1920   90.7550 N.3   260  PRO260     -0.2116
      8  CA       123.0130  115.7290   90.4410 C.3   260  PRO260      0.1372
      9  C        123.0030  114.2020   90.6200 C.2   260  PRO260      0.2244
     10  O        122.7970  113.6880   91.7270 O.2   260  PRO260     -0.2868
     11  CB       123.8690  116.4570   91.4810 C.3   260  PRO260      0.0268
     12  CG       122.9860  116.5110   92.6830 C.3   260  PRO260      0.0207
     13  CD       121.5930  116.7770   92.1120 C.3   260  PRO260      0.0892
     14  N        125.0730  110.6240   89.3840 N.3   262  VAL262     -0.1245
     15  CA       126.1360  109.8980   88.6930 C.3   262  VAL262      0.1561
     16  C        125.5380  108.6550   88.0720 C.2   262  VAL262      0.2260
     17  O        124.8400  107.8950   88.7330 O.2   262  VAL262     -0.2867
     18  CB       127.2850  109.5310   89.6580 C.3   262  VAL262      0.0252
     19  CG1      128.3670  108.6940   88.9250 C.3   262  VAL262      0.0019
     20  CG2      127.8750  110.8190   90.2660 C.3   262  VAL262      0.0019
     21  N        123.2760  106.7930   90.9970 N.3   279  PHE279     -0.1227
     22  CA       122.9430  107.3370   92.3000 C.3   279  PHE279      0.1736
     23  C        122.9160  108.8520   92.2850 C.2   279  PHE279      0.2595
     24  O        123.4770  109.4930   91.3900 O.2   279  PHE279     -0.2718
     25  CB       123.9120  106.8190   93.3840 C.3   279  PHE279      0.0547
     26  CG       125.3800  107.0360   93.0690 C.ar  279  PHE279     -0.0202
     27  CD1      125.9700  108.2800   93.2680 C.ar  279  PHE279     -0.0042
     28  CD2      126.1720  105.9960   92.5800 C.ar  279  PHE279     -0.0042
     29  CE1      127.3240  108.4910   92.9830 C.ar  279  PHE279     -0.0003
     30  CE2      127.5400  106.1980   92.2880 C.ar  279  PHE279     -0.0003
     31  CZ       128.1060  107.4450   92.4920 C.ar  279  PHE279     -0.0000
     32  N        122.2880  109.4280   93.3000 N.am  280  ASN280     -0.1960
     33  CA       122.2250  110.8750   93.3740 C.3   280  ASN280      0.1819
     34  C        122.1370  111.3840   94.8060 C.2   280  ASN280      0.2622
     35  O        121.7650  110.6570   95.7230 O.2   280  ASN280     -0.2715
     36  CB       120.9800  111.3540   92.6490 C.3   280  ASN280      0.1195
     37  CG       119.7430  111.1540   93.4780 C.2   280  ASN280      0.2630
     38  OD1      119.2080  110.0490   93.5580 O.2   280  ASN280     -0.2716
     39  ND2      119.3460  112.1900   94.2060 N.am  280  ASN280     -0.0877
     40  N        122.4030  112.6760   94.9430 N.am  281  GLY281     -0.1940
     41  CA       122.3010  113.3640   96.2110 C.3   281  GLY281      0.2014
     42  C        121.7420  114.7240   95.8300 C.2   281  GLY281      0.2639
     43  O        120.8990  114.8160   94.9230 O.2   281  GLY281     -0.2714
     44  N        122.1570  115.7720   96.5370 N.am  282  TRP282     -0.1959
     45  CA       121.7200  117.1160   96.1870 C.3   282  TRP282      0.1771
     46  C        122.9610  117.9260   95.8670 C.2   282  TRP282      0.2620
     47  O        124.0970  117.4600   96.0690 O.2   282  TRP282     -0.2715
     48  CB       120.8800  117.7880   97.2790 C.3   282  TRP282      0.0590
     49  CG       121.4580  117.7550   98.6640 C.ar  282  TRP282      0.0006
     50  CD1      122.4710  118.5190   99.1540 C.ar  282  TRP282      0.0946
     51  CD2      121.0280  116.9150   99.7370 C.ar  282  TRP282      0.0152
     52  NE1      122.7010  118.2110  100.4580 N.ar  282  TRP282     -0.2442
     53  CE2      121.8310  117.2250  100.8480 C.ar  282  TRP282      0.0810
     54  CE3      120.0400  115.9280   99.8630 C.ar  282  TRP282      0.0012
     55  CZ2      121.6850  116.5820  102.0870 C.ar  282  TRP282      0.0191
     56  CZ3      119.8890  115.2820  101.0980 C.ar  282  TRP282      0.0001
     57  CH2      120.7140  115.6170  102.1960 C.ar  282  TRP282      0.0015
     58  N        122.7440  119.0980   95.2850 N.am  283  TYR283     -0.1960
     59  CA       123.8350  119.9740   94.8850 C.3   283  TYR283      0.1771
     60  C        124.4770  120.7840   96.0110 C.2   283  TYR283      0.2619
     61  O        123.8690  121.0750   97.0450 O.2   283  TYR283     -0.2715
     62  CB       123.3450  120.9560   93.8020 C.3   283  TYR283      0.0574
     63  CG       123.6420  120.5260   92.3740 C.ar  283  TYR283     -0.0198
     64  CD1      124.9600  120.4030   91.9310 C.ar  283  TYR283     -0.0009
     65  CD2      122.6150  120.2340   91.4690 C.ar  283  TYR283     -0.0009
     66  CE1      125.2500  120.0030   90.6260 C.ar  283  TYR283      0.0417
     67  CE2      122.8990  119.8270   90.1550 C.ar  283  TYR283      0.0417
     68  CZ       124.2160  119.7180   89.7450 C.ar  283  TYR283      0.1957
     69  OH       124.4940  119.3450   88.4520 O.3   283  TYR283     -0.2866
     70  N        125.7210  121.1580   95.7540 N.am  284  MET284     -0.1977
     71  CA       126.5160  122.0020   96.6250 C.3   284  MET284      0.1605
     72  C        126.7140  123.1390   95.6330 C.2   284  MET284      0.2287
     73  O        127.1910  122.9180   94.5200 O.2   284  MET284     -0.2864
     74  CB       127.8600  121.3490   97.0040 C.3   284  MET284      0.0413
     75  CG       128.8000  122.3150   97.7590 C.3   284  MET284      0.0598
     76  SD       130.3210  121.6540   98.5090 S.3   284  MET284     -0.1393
     77  CE       131.4900  121.7030   97.0890 C.3   284  MET284      0.0692
     78  N        129.3160  123.6800   92.5540 N.3   287  GLU287     -0.1245
     79  CA       129.3590  122.8010   91.3780 C.3   287  GLU287      0.1567
     80  C        128.7000  123.5140   90.1740 C.2   287  GLU287      0.2260
     81  O        129.2310  123.5110   89.0610 O.2   287  GLU287     -0.2867
     82  CB       128.6490  121.4700   91.6750 C.3   287  GLU287      0.0388
     83  CG       129.4360  120.4950   92.5650 C.3   287  GLU287      0.1160
     84  CD       130.7330  120.0280   91.9260 C.2   287  GLU287      0.3649
     85  OE1      131.8190  120.3870   92.4330 O.co2 287  GLU287     -0.2457
     86  OE2      130.6720  119.3100   90.9030 O.co2 287  GLU287     -0.2457
@<TRIPOS>BOND
     1    16    15    1
     2    16    17    2
     3    69    68    1
     4    15    14    1
     5    15    18    1
     6    19    18    1
     7    81    80    2
     8    18    20    1
     9    68    67   ar
    10    68    66   ar
    11    67    65   ar
    12    80    79    1
    13     8     9    1
    14     8     7    1
    15     8    11    1
    16     9    10    2
    17    66    64   ar
    18     7    13    1
    19    86    84   ar
    20    21    22    1
    21    79    82    1
    22    79    78    1
    23    24    23    2
    24    65    63   ar
    25    11    12    1
    26    82    83    1
    27    84    85   ar
    28    84    83    1
    29    64    63   ar
    30    13    12    1
    31    23    22    1
    32    23    32   am
    33    30    31   ar
    34    30    28   ar
    35    22    25    1
    36    63    62    1
    37    31    29   ar
    38    28    26   ar
    39    36    33    1
    40    36    37    1
    41    29    27   ar
    42    26    27   ar
    43    26    25    1
    44    32    33    1
    45    33    34    1
    46    37    38    2
    47    37    39   am
    48    62    59    1
    49    73    72    2
    50    34    40   am
    51    34    35    2
    52    59    58    1
    53    59    60    1
    54    43    42    2
    55    40    41    1
    56    58    46   am
    57    72    71    1
    58    70    60   am
    59    70    71    1
    60    42    41    1
    61    42    44   am
    62    46    47    2
    63    46    45    1
    64    60    61    2
    65    45    44    1
    66    45    48    1
    67    71    74    1
    68    74    75    1
    69    77    76    1
    70    48    49    1
    71    75    76    1
    72     1     2    1
    73     2     5    1
    74     2     3    1
    75     5     6    1
    76    49    50   ar
    77    49    51   ar
    78    50    52   ar
    79     3     4    2
    80    51    54   ar
    81    51    53   ar
    82    54    56   ar
    83    52    53   ar
    84    53    55   ar
    85    56    57   ar
    86    55    57   ar
