@<TRIPOS>MOLECULE
tmp/1m8hB02.pdb
 95 94 0 0 0
SMALL
GASTEIGER

@<TRIPOS>ATOM
      1  N        133.6880  112.0890   96.9090 N.3   109  CYS109     -0.1235
      2  CA       132.4140  112.6950   97.3320 C.3   109  CYS109      0.1677
      3  C        132.5300  113.5340   98.6080 C.2   109  CYS109      0.2270
      4  O        133.0700  113.0830   99.6230 O.2   109  CYS109     -0.2867
      5  CB       131.3220  111.6360   97.5020 C.3   109  CYS109      0.0956
      6  SG       129.7080  112.3130   98.0240 S.3   109  CYS109     -0.0801
      7  N        125.6590  111.3740   82.9790 N.3   172  GLN172     -0.1245
      8  CA       124.7120  111.6890   84.0410 C.3   172  GLN172      0.1566
      9  C        123.3220  111.4440   83.4400 C.2   172  GLN172      0.2260
     10  O        123.1840  111.3680   82.2110 O.2   172  GLN172     -0.2867
     11  CB       124.8220  113.1630   84.4540 C.3   172  GLN172      0.0367
     12  CG       126.2180  113.6710   84.8130 C.3   172  GLN172      0.0905
     13  CD       126.1950  115.1220   85.3370 C.2   172  GLN172      0.2608
     14  OE1      125.7710  116.0540   84.6330 O.2   172  GLN172     -0.2717
     15  NE2      126.6460  115.3110   86.5870 N.am  172  GLN172     -0.0878
     16  N        121.4250  115.9930   90.0200 N.3   259  PRO259     -0.2116
     17  CA       122.8110  115.5740   89.7630 C.3   259  PRO259      0.1372
     18  C        122.8170  114.0490   89.9310 C.2   259  PRO259      0.2244
     19  O        122.6760  113.5330   91.0420 O.2   259  PRO259     -0.2868
     20  CB       123.5830  116.2760   90.8800 C.3   259  PRO259      0.0268
     21  CG       122.6470  116.1990   92.0180 C.3   259  PRO259      0.0207
     22  CD       121.2820  116.4920   91.4020 C.3   259  PRO259      0.0892
     23  N        124.8990  110.6340   88.6170 N.3   261  VAL261     -0.1245
     24  CA       125.9410  109.9440   87.8700 C.3   261  VAL261      0.1561
     25  C        125.3910  108.6380   87.3030 C.2   261  VAL261      0.2260
     26  O        124.8750  107.7880   88.0330 O.2   261  VAL261     -0.2867
     27  CB       127.1700  109.7100   88.7430 C.3   261  VAL261      0.0252
     28  CG1      128.3090  109.1070   87.9130 C.3   261  VAL261      0.0019
     29  CG2      127.5990  111.0400   89.3670 C.3   261  VAL261      0.0019
     30  N        123.0480  106.7520   90.1840 N.3   278  PHE278     -0.1227
     31  CA       122.7280  107.2880   91.5000 C.3   278  PHE278      0.1736
     32  C        122.7590  108.8210   91.5040 C.2   278  PHE278      0.2595
     33  O        123.3750  109.4520   90.6380 O.2   278  PHE278     -0.2718
     34  CB       123.6890  106.7230   92.5500 C.3   278  PHE278      0.0547
     35  CG       125.1390  106.9410   92.2310 C.ar  278  PHE278     -0.0202
     36  CD1      125.7030  108.2170   92.3080 C.ar  278  PHE278     -0.0042
     37  CD2      125.9430  105.8720   91.8540 C.ar  278  PHE278     -0.0042
     38  CE1      127.0410  108.4250   92.0140 C.ar  278  PHE278     -0.0003
     39  CE2      127.2960  106.0610   91.5540 C.ar  278  PHE278     -0.0003
     40  CZ       127.8460  107.3430   91.6340 C.ar  278  PHE278     -0.0000
     41  N        122.1300  109.4120   92.5130 N.am  279  ASN279     -0.1960
     42  CA       122.0700  110.8580   92.6160 C.3   279  ASN279      0.1819
     43  C        122.0100  111.3240   94.0540 C.2   279  ASN279      0.2622
     44  O        121.6370  110.5830   94.9620 O.2   279  ASN279     -0.2715
     45  CB       120.7980  111.3590   91.9610 C.3   279  ASN279      0.1195
     46  CG       119.5780  111.0730   92.8100 C.2   279  ASN279      0.2630
     47  OD1      119.1230  109.9380   92.8860 O.2   279  ASN279     -0.2716
     48  ND2      119.0960  112.0860   93.5230 N.am  279  ASN279     -0.0877
     49  N        122.2710  112.6110   94.2070 N.am  280  GLY280     -0.1940
     50  CA       122.2130  113.2670   95.4920 C.3   280  GLY280      0.2014
     51  C        121.6050  114.5990   95.1120 C.2   280  GLY280      0.2639
     52  O        120.7010  114.6470   94.2820 O.2   280  GLY280     -0.2714
     53  N        122.0940  115.6820   95.6950 N.am  281  TRP281     -0.1959
     54  CA       121.6010  117.0040   95.3480 C.3   281  TRP281      0.1771
     55  C        122.7990  117.8860   95.0430 C.2   281  TRP281      0.2620
     56  O        123.9240  117.5760   95.4310 O.2   281  TRP281     -0.2715
     57  CB       120.7470  117.5900   96.4570 C.3   281  TRP281      0.0590
     58  CG       121.3890  117.6050   97.7780 C.ar  281  TRP281      0.0006
     59  CD1      122.4490  118.3660   98.1810 C.ar  281  TRP281      0.0946
     60  CD2      120.9780  116.8570   98.9050 C.ar  281  TRP281      0.0152
     61  NE1      122.7170  118.1370   99.5040 N.ar  281  TRP281     -0.2442
     62  CE2      121.8190  117.2130   99.9730 C.ar  281  TRP281      0.0810
     63  CE3      119.9730  115.9170   99.1220 C.ar  281  TRP281      0.0012
     64  CZ2      121.6800  116.6600  101.2430 C.ar  281  TRP281      0.0191
     65  CZ3      119.8350  115.3660  100.3860 C.ar  281  TRP281      0.0001
     66  CH2      120.6810  115.7400  101.4290 C.ar  281  TRP281      0.0015
     67  N        122.5640  118.9910   94.3540 N.am  282  TYR282     -0.1960
     68  CA       123.6590  119.8700   93.9650 C.3   282  TYR282      0.1771
     69  C        124.4140  120.6250   95.0400 C.2   282  TYR282      0.2619
     70  O        123.9500  120.7660   96.1670 O.2   282  TYR282     -0.2715
     71  CB       123.1710  120.8710   92.9200 C.3   282  TYR282      0.0574
     72  CG       123.4330  120.4180   91.5160 C.ar  282  TYR282     -0.0198
     73  CD1      124.6830  120.5860   90.9370 C.ar  282  TYR282     -0.0009
     74  CD2      122.4290  119.8490   90.7510 C.ar  282  TYR282     -0.0009
     75  CE1      124.9260  120.2070   89.6260 C.ar  282  TYR282      0.0417
     76  CE2      122.6630  119.4650   89.4340 C.ar  282  TYR282      0.0417
     77  CZ       123.9120  119.6520   88.8820 C.ar  282  TYR282      0.1957
     78  OH       124.1340  119.3030   87.5780 O.3   282  TYR282     -0.2866
     79  N        125.6280  121.0360   94.6870 N.am  283  MET283     -0.1977
     80  CA       126.4350  121.8690   95.5550 C.3   283  MET283      0.1605
     81  C        126.7220  123.0840   94.6980 C.2   283  MET283      0.2287
     82  O        127.3800  122.9880   93.6680 O.2   283  MET283     -0.2864
     83  CB       127.7390  121.2110   95.9940 C.3   283  MET283      0.0413
     84  CG       128.5680  122.1600   96.8670 C.3   283  MET283      0.0598
     85  SD       129.9240  121.4450   97.7580 S.3   283  MET283     -0.1393
     86  CE       131.2300  121.7090   96.6110 C.3   283  MET283      0.0692
     87  N        129.1290  123.7510   91.8450 N.3   286  GLU286     -0.1245
     88  CA       129.0600  122.7980   90.7360 C.3   286  GLU286      0.1567
     89  C        128.4270  123.4300   89.5090 C.2   286  GLU286      0.2260
     90  O        128.9540  123.3330   88.3990 O.2   286  GLU286     -0.2867
     91  CB       128.2850  121.5520   91.1530 C.3   286  GLU286      0.0388
     92  CG       129.1760  120.4860   91.7300 C.3   286  GLU286      0.1160
     93  CD       130.1040  119.8900   90.6760 C.2   286  GLU286      0.3649
     94  OE1      131.3460  119.8510   90.9200 O.co2 286  GLU286     -0.2457
     95  OE2      129.5780  119.4770   89.6020 O.co2 286  GLU286     -0.2457
@<TRIPOS>BOND
     1    10     9    2
     2     7     8    1
     3     9     8    1
     4     8    11    1
     5    11    12    1
     6    14    13    2
     7    12    13    1
     8    13    15   am
     9    25    24    1
    10    25    26    2
    11    78    77    1
    12    24    23    1
    13    24    27    1
    14    28    27    1
    15    90    89    2
    16    27    29    1
    17    77    76   ar
    18    77    75   ar
    19    76    74   ar
    20    89    88    1
    21    95    93   ar
    22    75    73   ar
    23    17    18    1
    24    17    16    1
    25    17    20    1
    26    18    19    2
    27    16    22    1
    28    30    31    1
    29    33    32    2
    30    93    94   ar
    31    93    92    1
    32    88    91    1
    33    88    87    1
    34    74    72   ar
    35    20    21    1
    36    73    72   ar
    37    91    92    1
    38    22    21    1
    39    31    32    1
    40    31    34    1
    41    32    41   am
    42    72    71    1
    43    39    40   ar
    44    39    37   ar
    45    40    38   ar
    46    37    35   ar
    47    45    42    1
    48    45    46    1
    49    38    36   ar
    50    35    36   ar
    51    35    34    1
    52    41    42    1
    53    42    43    1
    54    46    47    2
    55    46    48   am
    56    71    68    1
    57    82    81    2
    58    68    67    1
    59    68    69    1
    60    43    49   am
    61    43    44    2
    62    49    50    1
    63    52    51    2
    64    67    55   am
    65    79    69   am
    66    79    80    1
    67    81    80    1
    68    69    70    2
    69    55    54    1
    70    55    56    2
    71    51    50    1
    72    51    53   am
    73    54    53    1
    74    54    57    1
    75    80    83    1
    76    83    84    1
    77    57    58    1
    78    86    85    1
    79    84    85    1
    80     1     2    1
    81     2     5    1
    82     2     3    1
    83     5     6    1
    84    58    59   ar
    85    58    60   ar
    86    59    61   ar
    87     3     4    2
    88    60    63   ar
    89    60    62   ar
    90    63    65   ar
    91    61    62   ar
    92    62    64   ar
    93    65    66   ar
    94    64    66   ar
