@<TRIPOS>MOLECULE
tmp/1m8iA02.pdb
 86 86 0 0 0
SMALL
GASTEIGER

@<TRIPOS>ATOM
      1  N        120.2280  108.6470   26.9530 N.3   110  CYS110     -0.1235
      2  CA       121.0440  109.7970   26.5610 C.3   110  CYS110      0.1677
      3  C        120.6410  110.4660   25.2430 C.2   110  CYS110      0.2270
      4  O        120.5590  109.8060   24.2010 O.2   110  CYS110     -0.2867
      5  CB       122.5200  109.4020   26.5150 C.3   110  CYS110      0.0956
      6  SG       123.6380  110.7370   26.0930 S.3   110  CYS110     -0.0801
      7  N        128.8390  118.0910   34.0830 N.3   260  PRO260     -0.2116
      8  CA       127.8680  117.0470   34.3900 C.3   260  PRO260      0.1372
      9  C        128.6250  115.7440   34.1320 C.2   260  PRO260      0.2244
     10  O        128.8810  115.3580   32.9830 O.2   260  PRO260     -0.2868
     11  CB       126.7690  117.3100   33.3730 C.3   260  PRO260      0.0268
     12  CG       127.5380  117.7480   32.1560 C.3   260  PRO260      0.0207
     13  CD       128.7220  118.5390   32.6800 C.3   260  PRO260      0.0892
     14  N        128.6420  111.7820   35.2490 N.3   262  VAL262     -0.1245
     15  CA       128.0140  110.6370   35.9080 C.3   262  VAL262      0.1561
     16  C        129.1320  109.7800   36.4640 C.2   262  VAL262      0.2260
     17  O        130.0240  109.3440   35.7280 O.2   262  VAL262     -0.2867
     18  CB       127.1070  109.8460   34.9430 C.3   262  VAL262      0.0252
     19  CG1      126.7650  108.4620   35.5110 C.3   262  VAL262      0.0019
     20  CG2      125.8240  110.6310   34.7180 C.3   262  VAL262      0.0019
     21  N        132.0630  109.3550   33.6350 N.3   279  PHE279     -0.1227
     22  CA       132.0780  109.9960   32.3310 C.3   279  PHE279      0.1736
     23  C        131.3160  111.3090   32.3710 C.2   279  PHE279      0.2595
     24  O        130.5180  111.5630   33.2880 O.2   279  PHE279     -0.2718
     25  CB       131.4540  109.0750   31.2830 C.3   279  PHE279      0.0547
     26  CG       130.1060  108.5330   31.6700 C.ar  279  PHE279     -0.0202
     27  CD1      128.9700  109.3360   31.6190 C.ar  279  PHE279     -0.0042
     28  CD2      129.9720  107.2110   32.0820 C.ar  279  PHE279     -0.0042
     29  CE1      127.7320  108.8380   31.9700 C.ar  279  PHE279     -0.0003
     30  CE2      128.7260  106.7000   32.4370 C.ar  279  PHE279     -0.0003
     31  CZ       127.6090  107.5190   32.3800 C.ar  279  PHE279     -0.0000
     32  N        131.5100  112.1060   31.3330 N.am  280  ASN280     -0.1960
     33  CA       130.8490  113.3900   31.2540 C.3   280  ASN280      0.1819
     34  C        130.7000  113.8500   29.8130 C.2   280  ASN280      0.2622
     35  O        131.4810  113.4770   28.9270 O.2   280  ASN280     -0.2715
     36  CB       131.7030  114.4400   31.9440 C.3   280  ASN280      0.1195
     37  CG       132.8810  114.8390   31.0930 C.2   280  ASN280      0.2630
     38  OD1      133.8740  114.1250   31.0300 O.2   280  ASN280     -0.2716
     39  ND2      132.7260  115.9140   30.3320 N.am  280  ASN280     -0.0877
     40  N        129.7410  114.7450   29.6300 N.am  281  GLY281     -0.1940
     41  CA       129.5130  115.3660   28.3470 C.3   281  GLY281      0.2014
     42  C        129.3860  116.8160   28.7740 C.2   281  GLY281      0.2639
     43  O        130.1240  117.2550   29.6590 O.2   281  GLY281     -0.2714
     44  N        128.4420  117.5440   28.1830 N.am  282  TRP282     -0.1959
     45  CA       128.1860  118.9310   28.5550 C.3   282  TRP282      0.1771
     46  C        126.7080  119.0880   28.8550 C.2   282  TRP282      0.2620
     47  O        125.8800  118.3500   28.3270 O.2   282  TRP282     -0.2715
     48  CB       128.6180  119.9010   27.4640 C.3   282  TRP282      0.0590
     49  CG       128.1400  119.5630   26.1050 C.ar  282  TRP282      0.0006
     50  CD1      126.8700  119.7070   25.6140 C.ar  282  TRP282      0.0946
     51  CD2      128.9340  119.0790   25.0280 C.ar  282  TRP282      0.0152
     52  NE1      126.8340  119.3500   24.2900 N.ar  282  TRP282     -0.2442
     53  CE2      128.0890  118.9590   23.9050 C.ar  282  TRP282      0.0810
     54  CE3      130.2870  118.7380   24.8990 C.ar  282  TRP282      0.0012
     55  CZ2      128.5510  118.5100   22.6660 C.ar  282  TRP282      0.0191
     56  CZ3      130.7490  118.2910   23.6650 C.ar  282  TRP282      0.0001
     57  CH2      129.8820  118.1810   22.5650 C.ar  282  TRP282      0.0015
     58  N        126.3770  120.0500   29.7050 N.am  283  TYR283     -0.1960
     59  CA       124.9850  120.2860   30.0840 C.3   283  TYR283      0.1771
     60  C        124.0240  120.6750   28.9550 C.2   283  TYR283      0.2619
     61  O        124.4170  121.2070   27.9060 O.2   283  TYR283     -0.2715
     62  CB       124.9110  121.3600   31.1660 C.3   283  TYR283      0.0574
     63  CG       124.8930  120.8300   32.5650 C.ar  283  TYR283     -0.0198
     64  CD1      123.7680  120.1950   33.0670 C.ar  283  TYR283     -0.0009
     65  CD2      125.9910  120.9830   33.4050 C.ar  283  TYR283     -0.0009
     66  CE1      123.7270  119.7240   34.3860 C.ar  283  TYR283      0.0417
     67  CE2      125.9630  120.5150   34.7260 C.ar  283  TYR283      0.0417
     68  CZ       124.8240  119.8880   35.2110 C.ar  283  TYR283      0.1957
     69  OH       124.7770  119.4480   36.5140 O.3   283  TYR283     -0.2866
     70  N        122.7610  120.3420   29.1780 N.am  284  MET284     -0.1977
     71  CA       121.6730  120.6960   28.2800 C.3   284  MET284      0.1605
     72  C        120.8530  121.6040   29.1810 C.2   284  MET284      0.2287
     73  O        120.3820  121.1740   30.2400 O.2   284  MET284     -0.2864
     74  CB       120.8280  119.4860   27.8740 C.3   284  MET284      0.0413
     75  CG       119.6330  119.8770   26.9820 C.3   284  MET284      0.0598
     76  SD       118.5360  118.5260   26.4730 S.3   284  MET284     -0.1393
     77  CE       117.6070  118.1590   28.0490 C.3   284  MET284      0.0692
     78  N        118.3610  120.9200   32.1530 N.3   287  GLU287     -0.1245
     79  CA       118.8140  120.1240   33.2830 C.3   287  GLU287      0.1567
     80  C        118.9530  120.9940   34.5270 C.2   287  GLU287      0.2260
     81  O        118.3830  120.7040   35.5790 O.2   287  GLU287     -0.2867
     82  CB       120.1190  119.4210   32.9350 C.3   287  GLU287      0.0388
     83  CG       119.8900  118.0430   32.3540 C.3   287  GLU287      0.1160
     84  CD       119.3250  117.0500   33.3820 C.2   287  GLU287      0.3649
     85  OE1      120.0510  116.7240   34.3640 O.co2 287  GLU287     -0.2457
     86  OE2      118.1570  116.6050   33.2030 O.co2 287  GLU287     -0.2457
@<TRIPOS>BOND
     1    57    55   ar
     2    57    56   ar
     3    55    53   ar
     4    56    54   ar
     5    53    52   ar
     6    53    51   ar
     7     4     3    2
     8    52    50   ar
     9    54    51   ar
    10    51    49   ar
    11     3     2    1
    12    50    49   ar
    13     6     5    1
    14    49    48    1
    15    76    75    1
    16    76    77    1
    17     5     2    1
    18     2     1    1
    19    75    74    1
    20    48    45    1
    21    74    71    1
    22    61    60    2
    23    44    45    1
    24    44    42   am
    25    71    70    1
    26    71    72    1
    27    47    46    2
    28    41    42    1
    29    41    40    1
    30    45    46    1
    31    42    43    2
    32    46    58   am
    33    35    34    2
    34    60    70   am
    35    60    59    1
    36    72    73    2
    37    40    34   am
    38    58    59    1
    39    34    33    1
    40    59    62    1
    41    39    37   am
    42    38    37    2
    43    37    36    1
    44    62    63    1
    45    33    32    1
    46    33    36    1
    47    25    26    1
    48    25    22    1
    49    32    23   am
    50    27    26   ar
    51    27    29   ar
    52    26    28   ar
    53    29    31   ar
    54    28    30   ar
    55    78    79    1
    56    12    13    1
    57    12    11    1
    58    22    23    1
    59    22    21    1
    60    83    82    1
    61    83    84    1
    62    23    24    2
    63    31    30   ar
    64    63    64   ar
    65    63    65   ar
    66    13     7    1
    67    82    79    1
    68    10     9    2
    69    64    66   ar
    70    86    84   ar
    71    79    80    1
    72    11     8    1
    73    84    85   ar
    74    65    67   ar
    75     7     8    1
    76     9     8    1
    77    66    68   ar
    78    80    81    2
    79    20    18    1
    80    67    68   ar
    81    18    19    1
    82    18    15    1
    83    68    69    1
    84    14    15    1
    85    17    16    2
    86    15    16    1
