@<TRIPOS>MOLECULE
tmp/1m8kC00.pdb
 202 193 0 0 0
SMALL
GASTEIGER

@<TRIPOS>ATOM
      1  N         36.7860   28.4590  -39.4300 N.3     7  VAL7       -0.1231
      2  CA        36.0480   28.4960  -40.6800 C.3     7  VAL7        0.1692
      3  C         36.7200   27.6540  -41.7440 C.2     7  VAL7        0.2593
      4  O         37.9010   27.8350  -42.0400 O.2     7  VAL7       -0.2718
      5  CB        35.8330   29.9570  -41.1860 C.3     7  VAL7        0.0266
      6  CG1       37.0420   30.7970  -40.9080 C.3     7  VAL7        0.0020
      7  CG2       35.5440   29.9580  -42.6720 C.3     7  VAL7        0.0020
      8  N         35.9540   26.7140  -42.2920 N.am    8  GLY8       -0.1942
      9  CA        36.4530   25.8320  -43.3310 C.3     8  GLY8        0.2014
     10  C         35.3080   25.2770  -44.1580 C.2     8  GLY8        0.2638
     11  O         34.1620   25.2990  -43.7150 O.2     8  GLY8       -0.2714
     12  N         35.6100   24.7790  -45.3540 N.am    9  ARG9       -0.1977
     13  CA        34.5920   24.2230  -46.2400 C.3     9  ARG9        0.1597
     14  C         33.9810   22.9060  -45.7490 C.2     9  ARG9        0.2287
     15  O         32.8400   22.5830  -46.0830 O.2     9  ARG9       -0.2864
     16  CB        35.1870   24.0070  -47.6230 C.3     9  ARG9        0.0334
     17  CG        35.4170   25.2650  -48.4000 C.3     9  ARG9        0.0492
     18  CD        36.4540   25.0070  -49.4570 C.3     9  ARG9        0.2205
     19  NE        36.2530   23.7140  -50.0980 N.pl3   9  ARG9       -0.0865
     20  CZ        37.2380   22.8760  -50.3980 C.cat   9  ARG9        0.5346
     21  NH1       38.4900   23.1970  -50.1110 N.pl3   9  ARG9        0.1354
     22  NH2       36.9750   21.7200  -50.9860 N.pl3   9  ARG9        0.1354
     23  N         35.8670   15.7530  -41.8180 N.3    14  HIS14      -0.1241
     24  CA        36.7090   14.5830  -41.5760 C.3    14  HIS14       0.1621
     25  C         37.3350   14.5620  -40.1740 C.2    14  HIS14       0.2264
     26  O         37.3420   15.5770  -39.4730 O.2    14  HIS14      -0.2867
     27  CB        37.7980   14.5060  -42.6420 C.3    14  HIS14       0.0745
     28  CG        38.7020   15.6980  -42.6730 C.ar   14  HIS14       0.0817
     29  ND1       39.3140   16.1990  -41.5440 N.ar   14  HIS14      -0.2268
     30  CD2       39.1490   16.4480  -43.7070 C.ar   14  HIS14       0.1154
     31  CE1       40.1030   17.2010  -41.8820 C.ar   14  HIS14       0.1986
     32  NE2       40.0220   17.3720  -43.1890 N.ar   14  HIS14      -0.2212
     33  N         41.2220   18.8010  -34.5450 N.3    20  VAL20      -0.1245
     34  CA        41.5410   20.2150  -34.3860 C.3    20  VAL20       0.1561
     35  C         40.4370   20.9310  -33.6150 C.2    20  VAL20       0.2260
     36  O         40.7150   21.7660  -32.7580 O.2    20  VAL20      -0.2867
     37  CB        41.7180   20.9080  -35.7580 C.3    20  VAL20       0.0252
     38  CG1       41.7910   22.4240  -35.5830 C.3    20  VAL20       0.0019
     39  CG2       42.9890   20.4160  -36.4270 C.3    20  VAL20       0.0019
     40  N         32.5680   27.4710  -44.3830 N.3    36  GLY36      -0.1210
     41  CA        32.9060   28.3150  -45.5170 C.3    36  GLY36       0.1956
     42  C         32.3270   27.8650  -46.8460 C.2    36  GLY36       0.2612
     43  O         31.8550   26.7370  -46.9660 O.2    36  GLY36      -0.2717
     44  N         32.3720   28.7500  -47.8400 N.am   37  SER37      -0.1952
     45  CA        31.8550   28.4740  -49.1830 C.3    37  SER37       0.1924
     46  C         30.5540   27.6880  -49.1630 C.2    37  SER37       0.2314
     47  O         30.3950   26.6960  -49.8850 O.2    37  SER37      -0.2863
     48  CB        32.8890   27.7070  -50.0080 C.3    37  SER37       0.2116
     49  OG        34.0090   28.5190  -50.2770 O.3    37  SER37      -0.2180
     50  N         35.3940   19.1550  -56.1070 N.3    45  ARG45      -0.1245
     51  CA        36.0400   19.8960  -55.0250 C.3    45  ARG45       0.1563
     52  C         35.1020   20.1470  -53.8610 C.2    45  ARG45       0.2260
     53  O         35.4740   19.9370  -52.7100 O.2    45  ARG45      -0.2867
     54  CB        36.5780   21.2330  -55.5430 C.3    45  ARG45       0.0307
     55  CG        37.3170   22.0450  -54.5030 C.3    45  ARG45       0.0489
     56  CD        37.8110   23.3510  -55.0860 C.3    45  ARG45       0.2205
     57  NE        38.6400   24.0990  -54.1390 N.pl3  45  ARG45      -0.0865
     58  CZ        38.1820   24.9360  -53.2030 C.cat  45  ARG45       0.5346
     59  NH1       36.8690   25.1640  -53.0670 N.pl3  45  ARG45       0.1354
     60  NH2       39.0490   25.5310  -52.3810 N.pl3  45  ARG45       0.1354
     61  N         30.2130   32.6720  -49.6250 N.3    78  ASP78      -0.1225
     62  CA        31.2860   33.5970  -49.9580 C.3    78  ASP78       0.1805
     63  C         30.7020   34.8710  -50.5860 C.2    78  ASP78       0.2597
     64  O         29.6330   34.8470  -51.2210 O.2    78  ASP78      -0.2718
     65  CB        32.2830   32.9660  -50.9460 C.3    78  ASP78       0.1424
     66  CG        33.0170   31.7660  -50.3690 C.2    78  ASP78       0.3668
     67  OD1       33.2050   31.7080  -49.1340 O.co2  78  ASP78      -0.2456
     68  OD2       33.4220   30.8910  -51.1580 O.co2  78  ASP78      -0.2456
     69  N         31.4080   35.9800  -50.4030 N.am   79  ILE79      -0.1980
     70  CA        30.9800   37.2540  -50.9450 C.3    79  ILE79       0.1595
     71  C         32.1420   37.7460  -51.7900 C.2    79  ILE79       0.2287
     72  O         33.2890   37.4000  -51.5250 O.2    79  ILE79      -0.2864
     73  CB        30.6520   38.2520  -49.8110 C.3    79  ILE79       0.0276
     74  CG1       31.9100   38.6390  -49.0450 C.3    79  ILE79       0.0022
     75  CG2       29.7060   37.6000  -48.8070 C.3    79  ILE79       0.0022
     76  CD1       31.6300   39.5750  -47.8860 C.3    79  ILE79       0.0001
     77  N         36.3890   40.7740  -50.1140 N.3    82  ASN82      -0.1240
     78  CA        37.1680   40.2910  -48.9710 C.3    82  ASN82       0.1653
     79  C         37.1140   41.2820  -47.8210 C.2    82  ASN82       0.2266
     80  O         37.1010   40.8970  -46.6420 O.2    82  ASN82      -0.2867
     81  CB        38.6260   40.0710  -49.3540 C.3    82  ASN82       0.1155
     82  CG        38.8330   38.8060  -50.1350 C.2    82  ASN82       0.2627
     83  OD1       38.0510   37.8680  -50.0260 O.2    82  ASN82      -0.2716
     84  ND2       39.9020   38.7580  -50.9130 N.am   82  ASN82      -0.0877
     85  N         33.9660   40.5660  -45.9890 N.3    85  TRP85      -0.1241
     86  CA        33.8370   39.2390  -45.4260 C.3    85  TRP85       0.1605
     87  C         33.7600   39.1290  -43.9040 C.2    85  TRP85       0.2264
     88  O         32.8840   38.4470  -43.3950 O.2    85  TRP85      -0.2867
     89  CB        34.9520   38.3360  -45.9610 C.3    85  TRP85       0.0550
     90  CG        34.7070   36.8880  -45.6630 C.ar   85  TRP85       0.0003
     91  CD1       33.6190   36.1460  -46.0290 C.ar   85  TRP85       0.0946
     92  CD2       35.5510   36.0130  -44.9090 C.ar   85  TRP85       0.0152
     93  NE1       33.7320   34.8650  -45.5490 N.ar   85  TRP85      -0.2442
     94  CE2       34.9090   34.7550  -44.8570 C.ar   85  TRP85       0.0810
     95  CE3       36.7880   36.1690  -44.2690 C.ar   85  TRP85       0.0012
     96  CZ2       35.4650   33.6600  -44.1910 C.ar   85  TRP85       0.0191
     97  CZ3       37.3380   35.0800  -43.6090 C.ar   85  TRP85       0.0001
     98  CH2       36.6760   33.8420  -43.5770 C.ar   85  TRP85       0.0015
     99  N         42.8820   30.1920  -37.5960 N.3   101  SER101     -0.1202
    100  CA        43.0730   29.9110  -39.0080 C.3   101  SER101      0.2020
    101  C         44.5300   29.8480  -39.3970 C.2   101  SER101      0.2619
    102  O         45.3920   30.4370  -38.7450 O.2   101  SER101     -0.2717
    103  CB        42.3880   30.9540  -39.8780 C.3   101  SER101      0.2103
    104  OG        42.7550   30.7640  -41.2330 O.3   101  SER101     -0.2182
    105  N         44.7920   29.1180  -40.4730 N.am  102  GLY102     -0.1942
    106  CA        46.1440   28.9850  -40.9640 C.3   102  GLY102      0.2014
    107  C         46.2400   29.7480  -42.2610 C.2   102  GLY102      0.2638
    108  O         47.3240   30.0740  -42.7260 O.2   102  GLY102     -0.2714
    109  N         45.0930   30.0490  -42.8490 N.am  103  ASN103     -0.1972
    110  CA        45.0710   30.7750  -44.1040 C.3   103  ASN103      0.1688
    111  C         45.4810   32.2200  -43.8830 C.2   103  ASN103      0.2292
    112  O         44.9550   32.8920  -42.9960 O.2   103  ASN103     -0.2864
    113  CB        43.6760   30.7080  -44.7150 C.3   103  ASN103      0.1181
    114  CG        43.5590   31.5190  -45.9760 C.2   103  ASN103      0.2629
    115  OD1       43.3180   32.7210  -45.9270 O.2   103  ASN103     -0.2716
    116  ND2       43.7440   30.8710  -47.1200 N.am  103  ASN103     -0.0877
    117  N         45.0200   34.9410  -45.8410 N.3   105  LEU105     -0.1231
    118  CA        43.9270   35.8610  -46.1230 C.3   105  LEU105      0.1693
    119  C         42.8960   35.9510  -45.0010 C.2   105  LEU105      0.2591
    120  O         42.4620   37.0470  -44.6460 O.2   105  LEU105     -0.2718
    121  CB        43.2100   35.4730  -47.4060 C.3   105  LEU105      0.0284
    122  CG        42.0160   36.3930  -47.6430 C.3   105  LEU105      0.0019
    123  CD1       42.4950   37.8510  -47.7150 C.3   105  LEU105      0.0001
    124  CD2       41.2940   35.9750  -48.8990 C.3   105  LEU105      0.0001
    125  N         42.4700   34.8090  -44.4620 N.am  106  VAL106     -0.1980
    126  CA        41.5130   34.8340  -43.3650 C.3   106  VAL106      0.1595
    127  C         42.1930   35.4790  -42.1790 C.2   106  VAL106      0.2287
    128  O         41.5780   36.2400  -41.4450 O.2   106  VAL106     -0.2864
    129  CB        41.0660   33.4280  -42.9420 C.3   106  VAL106      0.0276
    130  CG1       40.1870   33.5060  -41.6820 C.3   106  VAL106      0.0022
    131  CG2       40.3010   32.7820  -44.0720 C.3   106  VAL106      0.0022
    132  N         42.6070   39.3540  -42.8980 N.3   109  LEU109     -0.1245
    133  CA        41.2920   39.9750  -42.8600 C.3   109  LEU109      0.1561
    134  C         40.8060   40.1610  -41.4250 C.2   109  LEU109      0.2260
    135  O         40.5020   41.2810  -41.0150 O.2   109  LEU109     -0.2867
    136  CB        40.2780   39.1450  -43.6780 C.3   109  LEU109      0.0270
    137  CG        40.3990   39.2310  -45.2120 C.3   109  LEU109      0.0019
    138  CD1       39.2620   38.4970  -45.8810 C.3   109  LEU109      0.0001
    139  CD2       40.3910   40.6910  -45.6430 C.3   109  LEU109      0.0001
    140  N         45.6630   27.0780  -35.8440 N.3   120  PRO120     -0.2116
    141  CA        44.9920   25.9910  -35.1320 C.3   120  PRO120      0.1372
    142  C         46.0700   25.3700  -34.2650 C.2   120  PRO120      0.2244
    143  O         47.2430   25.4010  -34.6260 O.2   120  PRO120     -0.2868
    144  CB        44.5610   25.0500  -36.2530 C.3   120  PRO120      0.0268
    145  CG        44.4220   25.9490  -37.4200 C.3   120  PRO120      0.0207
    146  CD        45.6060   26.8640  -37.2970 C.3   120  PRO120      0.0892
    147  N         46.6420   22.3880  -33.8570 N.3   122  LEU122     -0.1231
    148  CA        47.0160   21.1170  -34.4860 C.3   122  LEU122      0.1693
    149  C         46.8850   21.1850  -35.9890 C.2   122  LEU122      0.2592
    150  O         45.8780   21.6680  -36.5040 O.2   122  LEU122     -0.2718
    151  CB        46.1070   19.9810  -34.0170 C.3   122  LEU122      0.0284
    152  CG        46.2810   19.3530  -32.6380 C.3   122  LEU122      0.0019
    153  CD1       45.0960   18.4400  -32.3560 C.3   122  LEU122      0.0001
    154  CD2       47.5940   18.5850  -32.5880 C.3   122  LEU122      0.0001
    155  N         47.8900   20.6650  -36.6860 N.am  123  PHE123     -0.1962
    156  CA        47.9050   20.6330  -38.1490 C.3   123  PHE123      0.1771
    157  C         47.8330   19.1610  -38.5710 C.2   123  PHE123      0.2619
    158  O         48.5860   18.3460  -38.0650 O.2   123  PHE123     -0.2715
    159  CB        49.2050   21.2610  -38.6580 C.3   123  PHE123      0.0574
    160  CG        49.2720   21.4040  -40.1540 C.ar  123  PHE123     -0.0200
    161  CD1       49.2150   22.6670  -40.7490 C.ar  123  PHE123     -0.0042
    162  CD2       49.3960   20.2780  -40.9750 C.ar  123  PHE123     -0.0042
    163  CE1       49.2800   22.8100  -42.1400 C.ar  123  PHE123     -0.0003
    164  CE2       49.4610   20.4080  -42.3680 C.ar  123  PHE123     -0.0003
    165  CZ        49.4030   21.6790  -42.9510 C.ar  123  PHE123     -0.0000
    166  N         46.9340   18.8050  -39.4810 N.am  124  TYR124     -0.1974
    167  CA        46.8390   17.4090  -39.8990 C.3   124  TYR124      0.1639
    168  C         47.3410   17.1800  -41.3210 C.2   124  TYR124      0.2290
    169  O         47.0020   17.9300  -42.2410 O.2   124  TYR124     -0.2864
    170  CB        45.3990   16.8980  -39.7760 C.3   124  TYR124      0.0560
    171  CG        44.3880   17.7050  -40.5460 C.ar  124  TYR124     -0.0198
    172  CD1       43.5530   18.6090  -39.8970 C.ar  124  TYR124     -0.0009
    173  CD2       44.3030   17.6120  -41.9370 C.ar  124  TYR124     -0.0009
    174  CE1       42.6670   19.4060  -40.6100 C.ar  124  TYR124      0.0417
    175  CE2       43.4170   18.4120  -42.6610 C.ar  124  TYR124      0.0417
    176  CZ        42.6080   19.3080  -41.9870 C.ar  124  TYR124      0.1957
    177  OH        41.7700   20.1390  -42.6920 O.3   124  TYR124     -0.2866
    178  N         48.0440   15.9230  -45.1380 N.3   126  ASP126     -0.1239
    179  CA        47.1010   15.8380  -46.2610 C.3   126  ASP126      0.1674
    180  C         46.4410   14.4720  -46.3170 C.2   126  ASP126      0.2266
    181  O         45.2710   14.3510  -46.6670 O.2   126  ASP126     -0.2867
    182  CB        47.7900   16.1030  -47.6020 C.3   126  ASP126      0.1410
    183  CG        48.4720   17.4530  -47.6550 C.2   126  ASP126      0.3668
    184  OD1       48.1400   18.3250  -46.8220 O.co2 126  ASP126     -0.2456
    185  OD2       49.3350   17.6430  -48.5400 O.co2 126  ASP126     -0.2456
    186  N         43.1550   14.8080  -45.3620 N.3   129  SER129     -0.1202
    187  CA        42.4130   15.9810  -45.8110 C.3   129  SER129      0.2020
    188  C         41.1990   15.5980  -46.6310 C.2   129  SER129      0.2619
    189  O         41.0590   14.4520  -47.0590 O.2   129  SER129     -0.2717
    190  CB        43.2980   16.8760  -46.6580 C.3   129  SER129      0.2103
    191  OG        43.5640   16.2440  -47.8950 O.3   129  SER129     -0.2182
    192  N         40.3250   16.5720  -46.8510 N.am  130  GLY130     -0.1942
    193  CA        39.1310   16.3160  -47.6290 C.3   130  GLY130      0.2014
    194  C         39.4760   15.7440  -48.9900 C.2   130  GLY130      0.2639
    195  O         38.7400   14.9120  -49.5230 O.2   130  GLY130     -0.2714
    196  N         40.5970   16.1750  -49.5610 N.am  131  THR131     -0.1950
    197  CA        40.9810   15.6710  -50.8710 C.3   131  THR131      0.1897
    198  C         41.1400   14.1620  -50.8260 C.2   131  THR131      0.2313
    199  O         40.6420   13.4490  -51.6960 O.2   131  THR131     -0.2863
    200  CB        42.2940   16.2920  -51.3720 C.3   131  THR131      0.1794
    201  OG1       42.1040   17.6890  -51.6200 O.3   131  THR131     -0.2208
    202  CG2       42.7200   15.6310  -52.6610 C.3   131  THR131      0.0378
@<TRIPOS>BOND
     1    50    51    1
     2    54    51    1
     3    54    55    1
     4    56    55    1
     5    56    57    1
     6    51    52    1
     7    57    58    2
     8    52    53    2
     9    58    59    1
    10    58    60    1
    11   202   200    1
    12    71    72    2
    13    71    70    1
    14   199   198    2
    15   201   200    1
    16   200   197    1
    17    64    63    2
    18    68    66   ar
    19    22    20    1
    20    65    66    1
    21    65    62    1
    22    70    69    1
    23    70    73    1
    24    84    82   am
    25   197   198    1
    26   197   196    1
    27    63    69   am
    28    63    62    1
    29    20    21    1
    30    20    19    2
    31    66    67   ar
    32    49    48    1
    33    82    83    2
    34    82    81    1
    35    77    78    1
    36    19    18    1
    37    48    45    1
    38    62    61    1
    39    47    46    2
    40    73    74    1
    41    73    75    1
    42   196   194   am
    43   195   194    2
    44    18    17    1
    45    81    78    1
    46    45    46    1
    47    45    44    1
    48    74    76    1
    49   194   193    1
    50    78    79    1
    51   124   122    1
    52   185   183   ar
    53    17    16    1
    54   191   190    1
    55    44    42   am
    56    79    80    2
    57   123   122    1
    58   183   182    1
    59   183   184   ar
    60   122   121    1
    61   193   192    1
    62    16    13    1
    63   182   179    1
    64   121   118    1
    65   116   114   am
    66   189   188    2
    67    43    42    2
    68   192   188   am
    69    42    41    1
    70   181   180    2
    71   190   187    1
    72   188   187    1
    73   180   179    1
    74   179   178    1
    75    13    14    1
    76    13    12    1
    77   118   117    1
    78   118   119    1
    79    15    14    2
    80    91    90   ar
    81    91    93   ar
    82    85    86    1
    83   114   115    2
    84   114   113    1
    85    89    90    1
    86    89    86    1
    87   138   137    1
    88   187   186    1
    89    90    92   ar
    90   139   137    1
    91    93    94   ar
    92    41    40    1
    93    86    87    1
    94    12    10   am
    95   137   136    1
    96   119   120    2
    97   119   125   am
    98    92    94   ar
    99    92    95   ar
   100    94    96   ar
   101   113   110    1
   102   125   126    1
   103    95    97   ar
   104    96    98   ar
   105    10    11    2
   106    10     9    1
   107   110   111    1
   108   110   109    1
   109   131   129    1
   110    87    88    2
   111   111   112    2
   112    30    32   ar
   113    30    28   ar
   114   136   133    1
   115    97    98   ar
   116   126   129    1
   117   126   127    1
   118     9     8    1
   119    32    31   ar
   120   165   164   ar
   121   165   163   ar
   122   129   130    1
   123   132   133    1
   124   133   134    1
   125   109   107   am
   126   108   107    2
   127   177   176    1
   128    28    27    1
   129    28    29   ar
   130     7     5    1
   131   175   176   ar
   132   175   173   ar
   133    27    24    1
   134   164   162   ar
   135     8     3   am
   136   107   106    1
   137   169   168    2
   138   127   128    2
   139   163   161   ar
   140     4     3    2
   141   176   174   ar
   142   173   171   ar
   143    31    29   ar
   144    23    24    1
   145     3     2    1
   146    24    25    1
   147   134   135    2
   148   168   167    1
   149   104   103    1
   150     5     6    1
   151     5     2    1
   152   162   160   ar
   153   106   105    1
   154   161   160   ar
   155     2     1    1
   156   174   172   ar
   157   171   172   ar
   158   171   170    1
   159   105   101   am
   160    25    26    2
   161   160   159    1
   162   167   170    1
   163   167   166    1
   164   103   100    1
   165   166   157   am
   166   101   100    1
   167   101   102    2
   168   100    99    1
   169   159   156    1
   170   157   156    1
   171   157   158    2
   172   156   155    1
   173   145   146    1
   174   145   144    1
   175   146   140    1
   176   155   149   am
   177   150   149    2
   178    39    37    1
   179   144   141    1
   180   149   148    1
   181   140   141    1
   182    37    38    1
   183    37    34    1
   184   141   142    1
   185   143   142    2
   186    33    34    1
   187   148   151    1
   188   148   147    1
   189    34    35    1
   190   151   152    1
   191    35    36    2
   192   152   154    1
   193   152   153    1
