@<TRIPOS>MOLECULE
tmp/1m8pC00.pdb
 178 171 0 0 0
SMALL
GASTEIGER

@<TRIPOS>ATOM
      1  N        -46.3190  120.1010   46.9620 N.3   405  MET405     -0.1245
      2  CA       -46.2330  120.0720   45.5270 C.3   405  MET405      0.1570
      3  C        -44.7620  120.3270   45.2570 C.2   405  MET405      0.2261
      4  O        -44.1110  121.1590   45.9300 O.2   405  MET405     -0.2867
      5  CB       -47.1020  121.1570   44.9140 C.3   405  MET405      0.0387
      6  CG       -47.3960  120.9430   43.4470 C.3   405  MET405      0.0595
      7  SD       -45.9810  121.4810   42.4650 S.3   405  MET405     -0.1393
      8  CE       -46.1680  123.2770   42.5010 C.3   405  MET405      0.0692
      9  N        -41.4600  114.0260   45.1960 N.3   409  LYS409     -0.1231
     10  CA       -42.2000  112.7840   45.2080 C.3   409  LYS409      0.1693
     11  C        -42.4770  112.2040   43.8160 C.2   409  LYS409      0.2592
     12  O        -42.5450  110.9780   43.6480 O.2   409  LYS409     -0.2718
     13  CB       -43.5270  112.9730   45.9380 C.3   409  LYS409      0.0285
     14  CG       -44.4600  114.0110   45.3420 C.3   409  LYS409      0.0035
     15  CD       -45.5890  114.3720   46.3200 C.3   409  LYS409      0.0206
     16  CE       -46.4580  115.5190   45.7840 C.3   409  LYS409      0.1093
     17  NZ       -47.2090  115.1350   44.5390 N.3   409  LYS409     -0.1314
     18  N        -42.6440  113.0580   42.8140 N.am  410  ASP410     -0.1974
     19  CA       -42.9300  112.5560   41.4770 C.3   410  ASP410      0.1709
     20  C        -41.7140  111.8000   40.9600 C.2   410  ASP410      0.2293
     21  O        -41.8100  110.6610   40.4840 O.2   410  ASP410     -0.2864
     22  CB       -43.2980  113.7210   40.5410 C.3   410  ASP410      0.1436
     23  CG       -44.7810  114.1730   40.6880 C.2   410  ASP410      0.3671
     24  OD1      -45.3090  114.2570   41.8280 O.co2 410  ASP410     -0.2456
     25  OD2      -45.4230  114.4570   39.6420 O.co2 410  ASP410     -0.2456
     26  N        -49.9060  112.1990   40.9250 N.3   433  GLY433     -0.1210
     27  CA       -50.9250  113.1770   41.2430 C.3   433  GLY433      0.1956
     28  C        -51.7090  113.6440   40.0380 C.2   433  GLY433      0.2611
     29  O        -52.9460  113.5450   40.0400 O.2   433  GLY433     -0.2717
     30  N        -50.9980  114.1240   39.0090 N.am  434  ASP434     -0.1973
     31  CA       -51.6320  114.6450   37.8040 C.3   434  ASP434      0.1709
     32  C        -52.3960  113.6130   37.0060 C.2   434  ASP434      0.2293
     33  O        -53.5070  113.8900   36.5870 O.2   434  ASP434     -0.2864
     34  CB       -50.6250  115.3540   36.9010 C.3   434  ASP434      0.1436
     35  CG       -49.5160  114.4560   36.4520 C.2   434  ASP434      0.3671
     36  OD1      -48.7710  113.9710   37.3260 O.co2 434  ASP434     -0.2456
     37  OD2      -49.3870  114.2400   35.2300 O.co2 434  ASP434     -0.2456
     38  N        -53.8650  111.0040   38.0450 N.3   436  VAL436     -0.1231
     39  CA       -55.0920  110.8090   38.8280 C.3   436  VAL436      0.1692
     40  C        -56.0580  111.9500   38.5880 C.2   436  VAL436      0.2591
     41  O        -57.2460  111.7300   38.3620 O.2   436  VAL436     -0.2718
     42  CB       -54.8030  110.7520   40.3780 C.3   436  VAL436      0.0266
     43  CG1      -56.1150  110.8720   41.1760 C.3   436  VAL436      0.0020
     44  CG2      -54.0930  109.4520   40.7420 C.3   436  VAL436      0.0020
     45  N        -55.5480  113.1760   38.6630 N.am  437  ARG437     -0.1980
     46  CA       -56.3950  114.3560   38.4530 C.3   437  ARG437      0.1597
     47  C        -57.0050  114.3480   37.0610 C.2   437  ARG437      0.2287
     48  O        -58.1680  114.6390   36.8880 O.2   437  ARG437     -0.2864
     49  CB       -55.5840  115.6410   38.6560 C.3   437  ARG437      0.0334
     50  CG       -56.0560  116.5460   39.8200 C.3   437  ARG437      0.0492
     51  CD       -56.4410  115.7170   40.9950 C.3   437  ARG437      0.2205
     52  NE       -56.7130  116.4490   42.2370 N.pl3 437  ARG437     -0.0865
     53  CZ       -57.7020  117.3240   42.4390 C.cat 437  ARG437      0.5346
     54  NH1      -58.5480  117.6440   41.4650 N.pl3 437  ARG437      0.1354
     55  NH2      -57.9040  117.8100   43.6600 N.pl3 437  ARG437      0.1354
     56  N        -60.4650  121.7690   44.8650 N.3   446  PHE446     -0.1241
     57  CA       -59.4880  121.6130   45.9360 C.3   446  PHE446      0.1605
     58  C        -59.9710  121.9810   47.3170 C.2   446  PHE446      0.2264
     59  O        -59.1960  122.3900   48.1660 O.2   446  PHE446     -0.2867
     60  CB       -58.2150  122.3850   45.5990 C.3   446  PHE446      0.0534
     61  CG       -57.5490  121.8890   44.3710 C.ar  446  PHE446     -0.0203
     62  CD1      -57.9870  122.2960   43.1180 C.ar  446  PHE446     -0.0042
     63  CD2      -56.5580  120.9140   44.4540 C.ar  446  PHE446     -0.0042
     64  CE1      -57.4520  121.7290   41.9590 C.ar  446  PHE446     -0.0003
     65  CE2      -56.0140  120.3370   43.2950 C.ar  446  PHE446     -0.0003
     66  CZ       -56.4630  120.7440   42.0490 C.ar  446  PHE446     -0.0000
     67  N        -60.6670  117.3130   47.8360 N.3   451  ARG451     -0.1245
     68  CA       -59.3990  116.5980   47.9250 C.3   451  ARG451      0.1563
     69  C        -59.6540  115.2480   48.6130 C.2   451  ARG451      0.2260
     70  O        -59.0840  114.2160   48.2340 O.2   451  ARG451     -0.2867
     71  CB       -58.3730  117.3830   48.7400 C.3   451  ARG451      0.0307
     72  CG       -57.9220  118.6900   48.1410 C.3   451  ARG451      0.0489
     73  CD       -57.0470  119.4010   49.1600 C.3   451  ARG451      0.2205
     74  NE       -56.8220  120.8060   48.8290 N.pl3 451  ARG451     -0.0865
     75  CZ       -55.7340  121.2690   48.2210 C.cat 451  ARG451      0.5346
     76  NH1      -54.7570  120.4390   47.8680 N.pl3 451  ARG451      0.1354
     77  NH2      -55.6160  122.5680   47.9840 N.pl3 451  ARG451      0.1354
     78  N        -60.9900  112.9720   46.1230 N.3   454  ASN454     -0.1225
     79  CA       -59.9300  112.5790   45.2050 C.3   454  ASN454      0.1785
     80  C        -59.0970  111.4250   45.7710 C.2   454  ASN454      0.2597
     81  O        -58.7850  110.4630   45.0510 O.2   454  ASN454     -0.2718
     82  CB       -59.0190  113.7660   44.8980 C.3   454  ASN454      0.1169
     83  CG       -57.9300  113.4140   43.9290 C.2   454  ASN454      0.2627
     84  OD1      -56.7650  113.7820   44.1320 O.2   454  ASN454     -0.2716
     85  ND2      -58.2860  112.7060   42.8630 N.am  454  ASN454     -0.0877
     86  N        -58.7520  111.5040   47.0580 N.am  455  ILE455     -0.1980
     87  CA       -57.9450  110.4610   47.6890 C.3   455  ILE455      0.1595
     88  C        -58.7490  109.1650   47.8340 C.2   455  ILE455      0.2287
     89  O        -58.2260  108.0390   47.6290 O.2   455  ILE455     -0.2864
     90  CB       -57.4230  110.9220   49.0650 C.3   455  ILE455      0.0276
     91  CG1      -56.5390  112.1630   48.9080 C.3   455  ILE455      0.0022
     92  CG2      -56.6260  109.8250   49.7170 C.3   455  ILE455      0.0022
     93  CD1      -55.4330  112.0120   47.9280 C.3   455  ILE455      0.0001
     94  N        -49.9870  111.5750   45.3050 N.3   476  PRO476     -0.2102
     95  CA       -50.8520  112.7460   45.3950 C.3   476  PRO476      0.1504
     96  C        -50.2440  113.6190   46.4970 C.2   476  PRO476      0.2576
     97  O        -49.2540  113.2360   47.1010 O.2   476  PRO476     -0.2718
     98  CB       -52.1930  112.1360   45.8100 C.3   476  PRO476      0.0282
     99  CG       -51.7750  111.0440   46.7370 C.3   476  PRO476      0.0208
    100  CD       -50.5480  110.4390   46.0590 C.3   476  PRO476      0.0893
    101  N        -50.8060  114.7940   46.7520 N.am  477  ILE477     -0.1966
    102  CA       -50.2970  115.6410   47.8330 C.3   477  ILE477      0.1727
    103  C        -50.8460  115.0330   49.1220 C.2   477  ILE477      0.2616
    104  O        -50.0980  114.7720   50.0490 O.2   477  ILE477     -0.2715
    105  CB       -50.7870  117.1160   47.7120 C.3   477  ILE477      0.0290
    106  CG1      -50.1260  117.7770   46.4960 C.3   477  ILE477      0.0022
    107  CG2      -50.4750  117.8900   48.9920 C.3   477  ILE477      0.0023
    108  CD1      -50.5990  119.1990   46.2490 C.3   477  ILE477      0.0001
    109  N        -52.1440  114.7710   49.1490 N.am  478  ALA478     -0.1964
    110  CA       -52.7990  114.1990   50.3190 C.3   478  ALA478      0.1713
    111  C        -52.4870  115.0450   51.5470 C.2   478  ALA478      0.2458
    112  O        -51.8350  114.5820   52.4750 O.2   478  ALA478     -0.2730
    113  CB       -52.3400  112.7620   50.5330 C.3   478  ALA478      0.0333
    114  N        -52.9740  116.2950   51.5650 N.am  479  PRO479     -0.2727
    115  CA       -52.7540  117.2360   52.6590 C.3   479  PRO479      0.1402
    116  C        -53.4020  116.8820   54.0030 C.2   479  PRO479      0.2269
    117  O        -52.9430  117.3500   55.0500 O.2   479  PRO479     -0.2865
    118  CB       -53.3160  118.5580   52.1030 C.3   479  PRO479      0.0296
    119  CG       -53.4800  118.3290   50.6540 C.3   479  PRO479      0.0237
    120  CD       -53.8620  116.9000   50.5630 C.3   479  PRO479      0.0939
    121  N        -41.9900  125.9180   37.4340 N.3   515  ARG515     -0.1245
    122  CA       -43.2170  126.0830   36.6630 C.3   515  ARG515      0.1563
    123  C        -44.0130  127.2810   37.1040 C.2   515  ARG515      0.2260
    124  O        -45.0910  127.5490   36.5660 O.2   515  ARG515     -0.2867
    125  CB       -44.1130  124.8540   36.7950 C.3   515  ARG515      0.0307
    126  CG       -43.5650  123.6090   36.1710 C.3   515  ARG515      0.0489
    127  CD       -44.6340  122.5500   36.1290 C.3   515  ARG515      0.2205
    128  NE       -44.9960  122.1300   37.4650 N.pl3 515  ARG515     -0.0865
    129  CZ       -46.1030  121.4560   37.7410 C.cat 515  ARG515      0.5346
    130  NH1      -46.9480  121.1400   36.7520 N.pl3 515  ARG515      0.1354
    131  NH2      -46.3610  121.0950   39.0000 N.pl3 515  ARG515      0.1354
    132  N        -45.8500  127.7220   39.7020 N.3   517  ILE517     -0.1245
    133  CA       -47.1320  127.5030   40.3540 C.3   517  ILE517      0.1561
    134  C        -47.1340  128.1110   41.7550 C.2   517  ILE517      0.2260
    135  O        -48.1500  128.6800   42.1720 O.2   517  ILE517     -0.2867
    136  CB       -47.4850  126.0050   40.4250 C.3   517  ILE517      0.0252
    137  CG1      -47.6190  125.4690   39.0050 C.3   517  ILE517      0.0019
    138  CG2      -48.8260  125.7990   41.1370 C.3   517  ILE517      0.0019
    139  CD1      -47.0950  124.0830   38.8610 C.3   517  ILE517      0.0001
    140  N        -54.2340  131.5030   41.9790 N.3   526  ILE526     -0.1231
    141  CA       -54.7360  130.1730   42.3380 C.3   526  ILE526      0.1692
    142  C        -55.2010  130.2790   43.7900 C.2   526  ILE526      0.2592
    143  O        -54.4520  130.7460   44.6380 O.2   526  ILE526     -0.2718
    144  CB       -53.5990  129.0990   42.2370 C.3   526  ILE526      0.0266
    145  CG1      -52.9710  129.1180   40.8370 C.3   526  ILE526      0.0019
    146  CG2      -54.1390  127.7260   42.5410 C.3   526  ILE526      0.0020
    147  CD1      -51.6950  128.2710   40.6810 C.3   526  ILE526      0.0001
    148  N        -56.4220  129.8530   44.0780 N.am  527  LYS527     -0.1966
    149  CA       -56.9620  129.9160   45.4450 C.3   527  LYS527      0.1728
    150  C        -56.4550  128.7480   46.2910 C.2   527  LYS527      0.2617
    151  O        -56.0330  127.7220   45.7470 O.2   527  LYS527     -0.2715
    152  CB       -58.5020  129.8740   45.4250 C.3   527  LYS527      0.0311
    153  CG       -59.1250  130.0100   46.8120 C.3   527  LYS527      0.0038
    154  CD       -60.4640  129.2760   46.9500 C.3   527  LYS527      0.0206
    155  CE       -60.8640  129.1300   48.4340 C.3   527  LYS527      0.1093
    156  NZ       -62.0650  128.2590   48.6540 N.3   527  LYS527     -0.1314
    157  N        -56.5080  128.9190   47.6150 N.am  528  GLY528     -0.1940
    158  CA       -56.0920  127.8900   48.5670 C.3   528  GLY528      0.2014
    159  C        -55.0990  126.8080   48.1590 C.2   528  GLY528      0.2639
    160  O        -55.3800  125.6000   48.2580 O.2   528  GLY528     -0.2714
    161  N        -53.9260  127.2360   47.7140 N.am  529  PHE529     -0.1959
    162  CA       -52.8780  126.2990   47.3030 C.3   529  PHE529      0.1771
    163  C        -52.1630  125.7840   48.5490 C.2   529  PHE529      0.2620
    164  O        -51.7360  126.5770   49.4110 O.2   529  PHE529     -0.2715
    165  CB       -51.8690  127.0030   46.4110 C.3   529  PHE529      0.0574
    166  CG       -51.0130  126.0800   45.6400 C.ar  529  PHE529     -0.0200
    167  CD1      -51.5420  125.3610   44.5690 C.ar  529  PHE529     -0.0042
    168  CD2      -49.6680  125.9390   45.9480 C.ar  529  PHE529     -0.0042
    169  CE1      -50.7440  124.5190   43.8100 C.ar  529  PHE529     -0.0003
    170  CE2      -48.8520  125.0960   45.1950 C.ar  529  PHE529     -0.0003
    171  CZ       -49.3900  124.3860   44.1250 C.ar  529  PHE529     -0.0000
    172  N        -52.0270  124.4640   48.6410 N.am  530  THR530     -0.1951
    173  CA       -51.3720  123.8480   49.7870 C.3   530  THR530      0.1897
    174  C        -50.0020  124.4510   50.0960 C.2   530  THR530      0.2313
    175  O        -49.1790  124.6620   49.1960 O.2   530  THR530     -0.2863
    176  CB       -51.2210  122.3610   49.5800 C.3   530  THR530      0.1794
    177  OG1      -52.4810  121.8150   49.1440 O.3   530  THR530     -0.2208
    178  CG2      -50.7790  121.7040   50.8900 C.3   530  THR530      0.0378
@<TRIPOS>BOND
     1    37    35   ar
     2   127   126    1
     3   127   128    1
     4   126   125    1
     5    35    34    1
     6    35    36   ar
     7   124   123    2
     8    33    32    2
     9   122   125    1
    10   122   123    1
    11   122   121    1
    12   130   129    1
    13    48    47    2
    14    34    31    1
    15    32    31    1
    16    47    46    1
    17   128   129    2
    18   129   131    1
    19    31    30    1
    20    38    39    1
    21    41    40    2
    22    46    49    1
    23    46    45    1
    24    40    45   am
    25    40    39    1
    26    49    50    1
    27    39    42    1
    28   139   137    1
    29   137   136    1
    30    30    28   am
    31    25    23   ar
    32   132   133    1
    33    50    51    1
    34    28    29    2
    35    28    27    1
    36   133   136    1
    37   133   134    1
    38    42    44    1
    39    42    43    1
    40   136   138    1
    41    21    20    2
    42    22    23    1
    43    22    19    1
    44   147   145    1
    45    23    24   ar
    46   145   144    1
    47    26    27    1
    48    20    19    1
    49    51    52    1
    50    54    53    1
    51    19    18    1
    52   134   135    2
    53    64    66   ar
    54    64    62   ar
    55   140   141    1
    56    66    65   ar
    57   144   141    1
    58   144   146    1
    59    52    53    2
    60   141   142    1
    61    53    55    1
    62     7     8    1
    63     7     6    1
    64    18    11   am
    65    85    83   am
    66    62    61   ar
    67    65    63   ar
    68     6     5    1
    69    12    11    2
    70   142   148   am
    71   142   143    2
    72   169   171   ar
    73   169   167   ar
    74    11    10    1
    75    83    84    2
    76    83    82    1
    77   148   149    1
    78   171   170   ar
    79    61    63   ar
    80    61    60    1
    81    17    16    1
    82   167   166   ar
    83    56    57    1
    84    82    79    1
    85     5     2    1
    86    81    80    2
    87   170   168   ar
    88     9    10    1
    89    79    80    1
    90    79    78    1
    91    10    13    1
    92     3     2    1
    93     3     4    2
    94    94    95    1
    95    94   100    1
    96    14    13    1
    97    14    15    1
    98    95    98    1
    99    95    96    1
   100   152   149    1
   101   152   153    1
   102   149   150    1
   103     2     1    1
   104    60    57    1
   105   166   168   ar
   106   166   165    1
   107   151   150    2
   108    80    86   am
   109    16    15    1
   110    98    99    1
   111    57    58    1
   112   100    99    1
   113   108   106    1
   114   150   157   am
   115   165   162    1
   116   106   105    1
   117    96   101   am
   118    96    97    2
   119   101   102    1
   120   153   154    1
   121   154   155    1
   122    86    87    1
   123   162   161    1
   124   162   163    1
   125    58    59    2
   126   157   158    1
   127    89    88    2
   128    87    88    1
   129    87    90    1
   130   105   102    1
   131   105   107    1
   132   161   159   am
   133   102   103    1
   134    67    68    1
   135    76    75    1
   136    68    69    1
   137    68    71    1
   138    93    91    1
   139    77    75    1
   140    72    71    1
   141    72    73    1
   142   159   160    2
   143   159   158    1
   144    75    74    2
   145    70    69    2
   146   155   156    1
   147   163   172   am
   148   163   164    2
   149   172   173    1
   150    74    73    1
   151    91    90    1
   152    90    92    1
   153   103   109   am
   154   103   104    2
   155   177   176    1
   156   109   110    1
   157   175   174    2
   158   176   173    1
   159   176   178    1
   160   173   174    1
   161   110   113    1
   162   110   111    1
   163   120   119    1
   164   120   114    1
   165   119   118    1
   166   111   114   am
   167   111   112    2
   168   114   115    1
   169   118   115    1
   170   115   116    1
   171   116   117    2
