@<TRIPOS>MOLECULE
tmp/1m8tD01.pdb
 131 131 0 0 0
SMALL
GASTEIGER

@<TRIPOS>ATOM
      1  N         -9.7340   64.2470   -1.9470 N.3     2  LEU2       -0.1245
      2  CA        -9.8650   62.8430   -1.5510 C.3     2  LEU2        0.1561
      3  C         -9.3620   62.5580   -0.1440 C.2     2  LEU2        0.2260
      4  O         -9.9820   61.7970    0.5980 O.2     2  LEU2       -0.2867
      5  CB        -9.1080   61.9590   -2.5400 C.3     2  LEU2        0.0270
      6  CG        -9.9030   60.8990   -3.2970 C.3     2  LEU2        0.0019
      7  CD1      -11.2730   61.4250   -3.7080 C.3     2  LEU2        0.0001
      8  CD2       -9.0810   60.4800   -4.5010 C.3     2  LEU2        0.0001
      9  N        -11.8890   63.7040    2.2440 N.3     5  PHE5       -0.1227
     10  CA       -13.0650   62.8320    2.2180 C.3     5  PHE5        0.1736
     11  C        -12.7930   61.7220    3.2350 C.2     5  PHE5        0.2595
     12  O        -13.6880   61.3010    3.9720 O.2     5  PHE5       -0.2718
     13  CB       -13.2460   62.2270    0.8250 C.3     5  PHE5        0.0547
     14  CG       -14.5230   61.4550    0.6560 C.ar    5  PHE5       -0.0202
     15  CD1      -14.6970   60.6110   -0.4330 C.ar    5  PHE5       -0.0042
     16  CD2      -15.5570   61.5620    1.5850 C.ar    5  PHE5       -0.0042
     17  CE1      -15.8810   59.8850   -0.5900 C.ar    5  PHE5       -0.0003
     18  CE2      -16.7380   60.8420    1.4330 C.ar    5  PHE5       -0.0003
     19  CZ       -16.8990   60.0040    0.3470 C.ar    5  PHE5       -0.0000
     20  N        -11.5420   61.2600    3.2560 N.am    6  ASN6       -0.1974
     21  CA       -11.0730   60.2200    4.1730 C.3     6  ASN6        0.1688
     22  C        -11.3390   60.7340    5.5860 C.2     6  ASN6        0.2292
     23  O        -11.8390   60.0020    6.4400 O.2     6  ASN6       -0.2864
     24  CB        -9.5630   60.0040    3.9780 C.3     6  ASN6        0.1181
     25  CG        -9.0270   58.8060    4.7350 C.2     6  ASN6        0.2629
     26  OD1       -9.0690   57.6890    4.2420 O.2     6  ASN6       -0.2716
     27  ND2       -8.5160   59.0360    5.9410 N.am    6  ASN6       -0.0877
     28  N        -15.1420   60.7590    6.4500 N.3     9  ILE9       -0.1245
     29  CA       -15.6540   59.4460    6.8120 C.3     9  ILE9        0.1561
     30  C        -15.1930   59.0640    8.2200 C.2     9  ILE9        0.2260
     31  O        -15.9550   58.4830    8.9830 O.2     9  ILE9       -0.2867
     32  CB       -15.2110   58.3550    5.8290 C.3     9  ILE9        0.0252
     33  CG1      -15.8850   58.5590    4.4690 C.3     9  ILE9        0.0019
     34  CG2      -15.5990   56.9970    6.3700 C.3     9  ILE9        0.0019
     35  CD1      -15.5740   57.4750    3.4590 C.3     9  ILE9        0.0001
     36  N        -11.2080   54.5690    6.0510 N.pl3  18  PRO18      -0.2287
     37  CA       -11.8400   54.9090    4.7630 C.3    18  PRO18       0.1743
     38  C        -11.1300   54.5420    3.4550 C.2    18  PRO18       0.2618
     39  O        -11.6850   53.8020    2.6500 O.2    18  PRO18      -0.2715
     40  CB       -12.1170   56.4120    4.8560 C.3    18  PRO18       0.0584
     41  CG       -11.6190   56.8670    6.1920 C.2    18  PRO18      -0.0065
     42  CD       -10.9910   55.7450    6.9200 C.2    18  PRO18       0.0761
     43  N         -9.9250   55.0660    3.2370 N.am   19  TRP19      -0.1974
     44  CA        -9.1590   54.8010    2.0130 C.3    19  TRP19       0.1640
     45  C         -8.9720   53.3000    1.7320 C.2    19  TRP19       0.2290
     46  O         -8.5790   52.9090    0.6310 O.2    19  TRP19      -0.2864
     47  CB        -7.7900   55.4810    2.0940 C.3    19  TRP19       0.0576
     48  CG        -6.9800   55.0160    3.2670 C.ar   19  TRP19       0.0006
     49  CD1       -7.0350   55.4920    4.5460 C.ar   19  TRP19       0.0946
     50  CD2       -6.0450   53.9290    3.2810 C.ar   19  TRP19       0.0152
     51  NE1       -6.1960   54.7650    5.3570 N.ar   19  TRP19      -0.2442
     52  CE2       -5.5790   53.7990    4.6070 C.ar   19  TRP19       0.0810
     53  CE3       -5.5620   53.0490    2.3000 C.ar   19  TRP19       0.0012
     54  CZ2       -4.6460   52.8210    4.9780 C.ar   19  TRP19       0.0191
     55  CZ3       -4.6370   52.0800    2.6670 C.ar   19  TRP19       0.0001
     56  CH2       -4.1920   51.9740    4.0000 C.ar   19  TRP19       0.0015
     57  N        -13.5000   51.5650    2.2420 N.3    22  TYR22      -0.1227
     58  CA       -14.4310   51.9780    1.1970 C.3    22  TYR22       0.1736
     59  C        -13.8110   52.3040   -0.1540 C.2    22  TYR22       0.2596
     60  O        -14.4060   53.0610   -0.9230 O.2    22  TYR22      -0.2718
     61  CB       -15.2110   53.2030    1.6710 C.3    22  TYR22       0.0548
     62  CG       -15.8730   53.0100    3.0130 C.ar   22  TYR22      -0.0200
     63  CD1      -16.9930   52.1980    3.1400 C.ar   22  TYR22      -0.0009
     64  CD2      -15.3560   53.6090    4.1630 C.ar   22  TYR22      -0.0009
     65  CE1      -17.5830   51.9810    4.3760 C.ar   22  TYR22       0.0417
     66  CE2      -15.9340   53.4030    5.4000 C.ar   22  TYR22       0.0417
     67  CZ       -17.0480   52.5860    5.5050 C.ar   22  TYR22       0.1957
     68  OH       -17.6210   52.3620    6.7390 O.3    22  TYR22      -0.2866
     69  N        -12.6430   51.7360   -0.4520 N.am   23  SER23      -0.1952
     70  CA       -11.9710   52.0060   -1.7100 C.3    23  SER23       0.1924
     71  C        -12.2680   51.0010   -2.7950 C.2    23  SER23       0.2314
     72  O        -12.0810   51.2970   -3.9670 O.2    23  SER23      -0.2863
     73  CB       -10.4680   52.0780   -1.5100 C.3    23  SER23       0.2116
     74  OG        -9.9460   50.8480   -1.0530 O.3    23  SER23      -0.2180
     75  N        -19.8190   50.7050   -7.2680 N.3    28  TYR28      -0.1227
     76  CA       -19.4670   52.1140   -7.3250 C.3    28  TYR28       0.1736
     77  C        -18.3910   52.6240   -6.3720 C.2    28  TYR28       0.2596
     78  O        -17.6840   53.5630   -6.7150 O.2    28  TYR28      -0.2718
     79  CB       -20.7360   52.9280   -7.1270 C.3    28  TYR28       0.0548
     80  CG       -21.6930   52.7890   -8.2750 C.ar   28  TYR28      -0.0200
     81  CD1      -21.5670   53.5900   -9.3990 C.ar   28  TYR28      -0.0009
     82  CD2      -22.7040   51.8290   -8.2590 C.ar   28  TYR28      -0.0009
     83  CE1      -22.4160   53.4460  -10.4800 C.ar   28  TYR28       0.0417
     84  CE2      -23.5620   51.6700   -9.3430 C.ar   28  TYR28       0.0417
     85  CZ       -23.4110   52.4870  -10.4480 C.ar   28  TYR28       0.1957
     86  OH       -24.2630   52.3640  -11.5170 O.3    28  TYR28      -0.2866
     87  N        -18.2770   52.0380   -5.1790 N.am   29  CYS29      -0.1956
     88  CA       -17.2670   52.4890   -4.2170 C.3    29  CYS29       0.1843
     89  C        -15.8910   52.1600   -4.7410 C.2    29  CYS29       0.2626
     90  O        -15.4780   51.0030   -4.7710 O.2    29  CYS29      -0.2714
     91  CB       -17.4600   51.8370   -2.8510 C.3    29  CYS29       0.0997
     92  SG       -19.1080   52.1180   -2.1480 S.3    29  CYS29      -0.0797
     93  N        -15.1880   53.2010   -5.1590 N.am   30  GLY30      -0.1954
     94  CA       -13.8620   53.0290   -5.7100 C.3    30  GLY30       0.1869
     95  C        -13.8560   53.5160   -7.1440 C.2    30  GLY30       0.2309
     96  O        -14.9100   53.7940   -7.7170 O.2    30  GLY30      -0.2863
     97  N        -22.0860   55.4660   -2.8190 N.3    45  CYS45      -0.1235
     98  CA       -20.9750   55.7120   -3.7260 C.3    45  CYS45       0.1677
     99  C        -21.4380   56.0550   -5.1300 C.2    45  CYS45       0.2270
    100  O        -20.7670   56.8100   -5.8310 O.2    45  CYS45      -0.2867
    101  CB       -20.0440   54.5060   -3.7710 C.3    45  CYS45       0.0956
    102  SG       -19.3060   54.1260   -2.1580 S.3    45  CYS45      -0.0801
    103  N        -22.4610   59.5290   -4.7990 N.3    48  HIS48      -0.1226
    104  CA       -21.2440   60.3000   -4.5980 C.3    48  HIS48       0.1752
    105  C        -20.5390   60.4610   -5.9380 C.2    48  HIS48       0.2596
    106  O        -20.0130   61.5250   -6.2380 O.2    48  HIS48      -0.2718
    107  CB       -20.3490   59.5940   -3.5870 C.3    48  HIS48       0.0759
    108  CG       -19.0550   60.2960   -3.3320 C.ar   48  HIS48       0.0818
    109  ND1      -17.8910   59.9760   -3.9970 N.ar   48  HIS48      -0.2268
    110  CD2      -18.7360   61.2880   -2.4680 C.ar   48  HIS48       0.1154
    111  CE1      -16.9080   60.7360   -3.5490 C.ar   48  HIS48       0.1986
    112  NE2      -17.3940   61.5390   -2.6220 N.ar   48  HIS48      -0.2212
    113  N        -20.5370   59.4000   -6.7400 N.am   49  ASP49      -0.1974
    114  CA       -19.9270   59.4350   -8.0670 C.3    49  ASP49       0.1709
    115  C        -20.6280   60.4620   -8.9430 C.2    49  ASP49       0.2293
    116  O        -19.9780   61.1880   -9.6960 O.2    49  ASP49      -0.2864
    117  CB       -20.0250   58.0650   -8.7320 C.3    49  ASP49       0.1436
    118  CG       -18.8930   57.1520   -8.3410 C.2    49  ASP49       0.3671
    119  OD1      -18.1940   57.4640   -7.3550 O.co2  49  ASP49      -0.2456
    120  OD2      -18.7060   56.1230   -9.0150 O.co2  49  ASP49      -0.2456
    121  N        -22.6940   56.8080    4.2060 N.3   101  PHE101     -0.1241
    122  CA       -21.8780   55.6410    4.5430 C.3   101  PHE101      0.1605
    123  C        -22.2140   55.2170    5.9710 C.2   101  PHE101      0.2264
    124  O        -22.4150   54.0350    6.2510 O.2   101  PHE101     -0.2867
    125  CB       -20.3860   56.0020    4.4910 C.3   101  PHE101      0.0534
    126  CG       -19.7900   56.0160    3.1080 C.ar  101  PHE101     -0.0203
    127  CD1      -20.5680   56.2790    1.9820 C.ar  101  PHE101     -0.0042
    128  CD2      -18.4220   55.8140    2.9400 C.ar  101  PHE101     -0.0042
    129  CE1      -19.9930   56.3250    0.7000 C.ar  101  PHE101     -0.0003
    130  CE2      -17.8390   55.8570    1.6700 C.ar  101  PHE101     -0.0003
    131  CZ       -18.6270   56.1220    0.5460 C.ar  101  PHE101     -0.0000
@<TRIPOS>BOND
     1    86    85    1
     2    83    85   ar
     3    83    81   ar
     4    85    84   ar
     5   116   115    2
     6    81    80   ar
     7    84    82   ar
     8   120   118   ar
     9   115   114    1
    10   117   118    1
    11   117   114    1
    12   118   119   ar
    13    80    82   ar
    14    80    79    1
    15   114   113    1
    16    96    95    2
    17    76    75    1
    18    76    79    1
    19    76    77    1
    20    95    94    1
    21   113   105   am
    22    78    77    2
    23    77    87   am
    24   106   105    2
    25   105   104    1
    26   100    99    2
    27    94    93    1
    28    87    88    1
    29    93    89   am
    30    99    98    1
    31   103   104    1
    32    90    89    2
    33    89    88    1
    34   104   107    1
    35     8     6    1
    36    88    91    1
    37   109   111   ar
    38   109   108   ar
    39    72    71    2
    40   101    98    1
    41   101   102    1
    42    98    97    1
    43     7     6    1
    44   107   108    1
    45   111   112   ar
    46   108   110   ar
    47     6     5    1
    48    91    92    1
    49    71    70    1
    50   112   110   ar
    51     5     2    1
    52   102    92    1
    53     1     2    1
    54    70    73    1
    55    70    69    1
    56     2     3    1
    57    73    74    1
    58    60    59    2
    59    17    15   ar
    60    17    19   ar
    61    69    59   am
    62    15    14   ar
    63    59    58    1
    64     3     4    2
    65    19    18   ar
    66   131   129   ar
    67   131   130   ar
    68    46    45    2
    69    14    13    1
    70    14    16   ar
    71   129   127   ar
    72    13    10    1
    73    58    61    1
    74    58    57    1
    75    18    16   ar
    76   130   128   ar
    77    61    62    1
    78    45    44    1
    79   127   126   ar
    80    44    47    1
    81    44    43    1
    82    47    48    1
    83    10     9    1
    84    10    11    1
    85    53    55   ar
    86    53    50   ar
    87    39    38    2
    88    55    56   ar
    89   128   126   ar
    90    62    63   ar
    91    62    64   ar
    92   126   125    1
    93    63    65   ar
    94    11    20   am
    95    11    12    2
    96    43    38   am
    97    20    21    1
    98    48    50   ar
    99    48    49   ar
   100    50    52   ar
   101    38    37    1
   102    35    33    1
   103    24    21    1
   104    24    25    1
   105    56    54   ar
   106    64    66   ar
   107    21    22    1
   108   121   122    1
   109    26    25    2
   110    65    67   ar
   111    33    32    1
   112   125   122    1
   113   122   123    1
   114    49    51   ar
   115    52    54   ar
   116    52    51   ar
   117    25    27   am
   118    37    40    1
   119    37    36    1
   120    40    41    1
   121    66    67   ar
   122    67    68    1
   123    22    23    2
   124    32    34    1
   125    32    29    1
   126   123   124    2
   127    36    42    1
   128    41    42    2
   129    28    29    1
   130    29    30    1
   131    30    31    2
