@<TRIPOS>MOLECULE
tmp/1m9bA00.pdb
 172 169 0 0 0
SMALL
GASTEIGER

@<TRIPOS>ATOM
      1  N         65.1980   55.4270   -8.9160 N.3     7  TYR7       -0.1227
      2  CA        66.2290   54.7820   -8.0990 C.3     7  TYR7        0.1736
      3  C         66.0070   53.2760   -7.9990 C.2     7  TYR7        0.2595
      4  O         64.9720   52.7590   -8.4190 O.2     7  TYR7       -0.2718
      5  CB        66.2340   55.3710   -6.6850 C.3     7  TYR7        0.0548
      6  CG        67.4850   55.0540   -5.8990 C.ar    7  TYR7       -0.0200
      7  CD1       68.7300   55.5310   -6.3120 C.ar    7  TYR7       -0.0009
      8  CD2       67.4330   54.2760   -4.7480 C.ar    7  TYR7       -0.0009
      9  CE1       69.8940   55.2390   -5.5930 C.ar    7  TYR7        0.0417
     10  CE2       68.5820   53.9790   -4.0230 C.ar    7  TYR7        0.0417
     11  CZ        69.8110   54.4630   -4.4510 C.ar    7  TYR7        0.1957
     12  OH        70.9550   54.1780   -3.7340 O.3     7  TYR7       -0.2866
     13  N         66.9890   52.5710   -7.4480 N.am    8  TRP8       -0.1976
     14  CA        66.8680   51.1310   -7.2600 C.3     8  TRP8        0.1640
     15  C         65.7830   50.9180   -6.2030 C.2     8  TRP8        0.2290
     16  O         65.4630   51.8350   -5.4390 O.2     8  TRP8       -0.2864
     17  CB        68.1890   50.5340   -6.7580 C.3     8  TRP8        0.0576
     18  CG        69.3460   50.7160   -7.6930 C.ar    8  TRP8        0.0006
     19  CD1       70.4990   51.4090   -7.4470 C.ar    8  TRP8        0.0946
     20  CD2       69.4750   50.1820   -9.0190 C.ar    8  TRP8        0.0152
     21  NE1       71.3380   51.3380   -8.5370 N.ar    8  TRP8       -0.2442
     22  CE2       70.7360   50.5910   -9.5150 C.ar    8  TRP8        0.0810
     23  CE3       68.6490   49.3960   -9.8380 C.ar    8  TRP8        0.0012
     24  CZ2       71.1910   50.2390  -10.7950 C.ar    8  TRP8        0.0191
     25  CZ3       69.1040   49.0470  -11.1160 C.ar    8  TRP8        0.0001
     26  CH2       70.3640   49.4690  -11.5770 C.ar    8  TRP8        0.0015
     27  N         65.6740   49.8750   -3.3350 N.3    10  ILE10      -0.1245
     28  CA        66.4170   49.6450   -2.1040 C.3    10  ILE10       0.1561
     29  C         66.3290   50.9400   -1.2950 C.2    10  ILE10       0.2260
     30  O         65.6880   51.9070   -1.7250 O.2    10  ILE10      -0.2867
     31  CB        67.8940   49.3640   -2.4010 C.3    10  ILE10       0.0252
     32  CG1       68.5500   50.6170   -2.9920 C.3    10  ILE10       0.0019
     33  CG2       68.0170   48.2090   -3.3860 C.3    10  ILE10       0.0019
     34  CD1       70.0540   50.4870   -3.1910 C.3    10  ILE10       0.0001
     35  N         69.2350   52.6010    0.1000 N.3    12  GLY12      -0.1210
     36  CA        70.3720   53.3170   -0.4550 C.3    12  GLY12       0.1956
     37  C         70.5360   54.7840   -0.1220 C.2    12  GLY12       0.2611
     38  O         70.3870   55.1960    1.0310 O.2    12  GLY12      -0.2717
     39  N         70.8380   55.5740   -1.1490 N.am   13  LEU13      -0.1979
     40  CA        71.0680   57.0130   -1.0000 C.3    13  LEU13       0.1596
     41  C         69.8260   57.8940   -1.0850 C.2    13  LEU13       0.2287
     42  O         69.9130   59.1030   -0.8660 O.2    13  LEU13      -0.2864
     43  CB        72.0550   57.4900   -2.0700 C.3    13  LEU13       0.0297
     44  CG        73.3360   56.6810   -2.2420 C.3    13  LEU13       0.0022
     45  CD1       74.1650   57.2540   -3.4070 C.3    13  LEU13       0.0001
     46  CD2       74.1130   56.7060   -0.9380 C.3    13  LEU13       0.0001
     47  N         67.5170   50.0260  -17.0340 N.3    41  TRP41      -0.1227
     48  CA        68.0050   51.3550  -16.6690 C.3    41  TRP41       0.1737
     49  C         69.0910   51.8570  -17.6160 C.2    41  TRP41       0.2595
     50  O         69.1090   53.0360  -17.9760 O.2    41  TRP41      -0.2718
     51  CB        68.5360   51.3650  -15.2290 C.3    41  TRP41       0.0564
     52  CG        69.6070   52.4000  -14.9770 C.ar   41  TRP41       0.0003
     53  CD1       70.9370   52.1650  -14.7830 C.ar   41  TRP41       0.0946
     54  CD2       69.4400   53.8250  -14.9290 C.ar   41  TRP41       0.0152
     55  NE1       71.6100   53.3530  -14.6190 N.ar   41  TRP41      -0.2442
     56  CE2       70.7170   54.3870  -14.7040 C.ar   41  TRP41       0.0810
     57  CE3       68.3370   54.6800  -15.0550 C.ar   41  TRP41       0.0012
     58  CZ2       70.9210   55.7680  -14.6030 C.ar   41  TRP41       0.0191
     59  CZ3       68.5430   56.0570  -14.9540 C.ar   41  TRP41       0.0001
     60  CH2       69.8270   56.5840  -14.7300 C.ar   41  TRP41       0.0015
     61  N         69.9970   50.9710  -18.0160 N.am   42  ARG42      -0.1980
     62  CA        71.0640   51.3720  -18.9190 C.3    42  ARG42       0.1597
     63  C         70.5270   51.8850  -20.2530 C.2    42  ARG42       0.2287
     64  O         71.1050   52.7900  -20.8590 O.2    42  ARG42      -0.2864
     65  CB        72.0360   50.2130  -19.1480 C.3    42  ARG42       0.0334
     66  CG        73.2600   50.2730  -18.2550 C.3    42  ARG42       0.0492
     67  CD        74.2210   49.1500  -18.5650 C.3    42  ARG42       0.2205
     68  NE        73.6960   47.8520  -18.1530 N.pl3  42  ARG42      -0.0865
     69  CZ        73.4620   47.5060  -16.8900 C.cat  42  ARG42       0.5346
     70  NH1       73.7060   48.3670  -15.9060 N.pl3  42  ARG42       0.1354
     71  NH2       72.9880   46.2970  -16.6080 N.pl3  42  ARG42       0.1354
     72  N         69.2800   55.5250  -19.3510 N.3    45  LYS45      -0.1245
     73  CA        70.2750   56.4240  -18.7720 C.3    45  LYS45       0.1561
     74  C         70.5350   57.7290  -19.5250 C.2    45  LYS45       0.2260
     75  O         70.4630   58.8090  -18.9400 O.2    45  LYS45      -0.2867
     76  CB        71.5950   55.6700  -18.5800 C.3    45  LYS45       0.0271
     77  CG        72.6540   56.4510  -17.8220 C.3    45  LYS45       0.0035
     78  CD        73.8640   55.5820  -17.5050 C.3    45  LYS45       0.0206
     79  CE        74.8460   56.3120  -16.6020 C.3    45  LYS45       0.1093
     80  NZ        76.0150   55.4720  -16.2720 N.3    45  LYS45      -0.1314
     81  N         72.5980   59.5470  -13.6220 N.3    54  ASN54      -0.1225
     82  CA        72.9360   58.7340  -12.4630 C.3    54  ASN54       0.1785
     83  C         71.6870   58.3810  -11.6670 C.2    54  ASN54       0.2597
     84  O         70.5980   58.8850  -11.9430 O.2    54  ASN54      -0.2718
     85  CB        73.9030   59.4900  -11.5540 C.3    54  ASN54       0.1169
     86  CG        74.8820   58.5700  -10.8490 C.2    54  ASN54       0.2627
     87  OD1       74.5700   57.4150  -10.5680 O.2    54  ASN54      -0.2716
     88  ND2       76.0710   59.0850  -10.5480 N.am   54  ASN54      -0.0877
     89  N         71.8490   57.4990  -10.6860 N.am   55  LEU55      -0.1966
     90  CA        70.7440   57.0930   -9.8200 C.3    55  LEU55       0.1713
     91  C         71.1070   57.5050   -8.4000 C.2    55  LEU55       0.2458
     92  O         72.1900   57.1910   -7.9100 O.2    55  LEU55      -0.2730
     93  CB        70.5170   55.5740   -9.8810 C.3    55  LEU55       0.0310
     94  CG        69.7890   54.9930  -11.1040 C.3    55  LEU55       0.0022
     95  CD1       69.8440   53.4820  -11.0550 C.3    55  LEU55       0.0001
     96  CD2       68.3430   55.4580  -11.1260 C.3    55  LEU55       0.0001
     97  N         70.1950   58.2030   -7.7100 N.am   56  PRO56      -0.2727
     98  CA        68.8540   58.6330   -8.1270 C.3    56  PRO56       0.1402
     99  C         68.7870   59.8640   -9.0270 C.2    56  PRO56       0.2269
    100  O         69.7720   60.5850   -9.2070 O.2    56  PRO56      -0.2865
    101  CB        68.1800   58.9170   -6.8010 C.3    56  PRO56       0.0296
    102  CG        69.3060   59.5730   -6.0520 C.3    56  PRO56       0.0237
    103  CD        70.4580   58.6240   -6.3230 C.3    56  PRO56       0.0939
    104  N         72.4090   63.3330   -8.3090 N.3    67  GLN67      -0.1231
    105  CA        73.2380   63.5230   -7.1100 C.3    67  GLN67       0.1698
    106  C         72.2430   63.6800   -5.9530 C.2    67  GLN67       0.2592
    107  O         71.6540   64.7500   -5.7410 O.2    67  GLN67      -0.2718
    108  CB        74.1480   64.7600   -7.2040 C.3    67  GLN67       0.0381
    109  CG        75.2360   64.6910   -8.2760 C.3    67  GLN67       0.0905
    110  CD        76.1960   63.5140   -8.1000 C.2    67  GLN67       0.2608
    111  OE1       76.6440   63.2240   -6.9940 O.2    67  GLN67      -0.2717
    112  NE2       76.5260   62.8470   -9.2040 N.am   67  GLN67      -0.0878
    113  N         72.0530   62.5870   -5.2220 N.am   68  SER68      -0.1952
    114  CA        71.1160   62.5360   -4.1160 C.3    68  SER68       0.1924
    115  C         71.1040   63.7440   -3.1820 C.2    68  SER68       0.2314
    116  O         70.0440   64.1220   -2.6960 O.2    68  SER68      -0.2863
    117  CB        71.3480   61.2580   -3.3100 C.3    68  SER68       0.2116
    118  OG        72.6570   61.2340   -2.7600 O.3    68  SER68      -0.2180
    119  N         76.9490   57.1960    7.6150 N.3   103  ARG103     -0.1231
    120  CA        76.2850   56.4360    6.5680 C.3   103  ARG103      0.1694
    121  C         77.2480   55.8880    5.5200 C.2   103  ARG103      0.2592
    122  O         77.1540   54.7200    5.1550 O.2   103  ARG103     -0.2718
    123  CB        75.2110   57.2850    5.8870 C.3   103  ARG103      0.0321
    124  CG        74.3120   56.4940    4.9570 C.3   103  ARG103      0.0489
    125  CD        73.4500   55.4930    5.7360 C.3   103  ARG103      0.2205
    126  NE        72.7420   54.5680    4.8520 N.pl3 103  ARG103     -0.0865
    127  CZ        73.3070   53.5190    4.2590 C.cat 103  ARG103      0.5346
    128  NH1       74.5900   53.2460    4.4590 N.pl3 103  ARG103      0.1354
    129  NH2       72.5950   52.7530    3.4450 N.pl3 103  ARG103      0.1354
    130  N         78.1640   56.7210    5.0270 N.am  104  TYR104     -0.1976
    131  CA        79.1230   56.2660    4.0210 C.3   104  TYR104      0.1639
    132  C         80.1620   55.3570    4.6640 C.2   104  TYR104      0.2290
    133  O         80.8230   54.5770    3.9810 O.2   104  TYR104     -0.2864
    134  CB        79.8330   57.4500    3.3460 C.3   104  TYR104      0.0560
    135  CG        79.0030   58.2160    2.3320 C.ar  104  TYR104     -0.0198
    136  CD1       77.7090   57.8090    1.9900 C.ar  104  TYR104     -0.0009
    137  CD2       79.5170   59.3500    1.7040 C.ar  104  TYR104     -0.0009
    138  CE1       76.9540   58.5150    1.0440 C.ar  104  TYR104      0.0417
    139  CE2       78.7700   60.0600    0.7600 C.ar  104  TYR104      0.0417
    140  CZ        77.4920   59.6380    0.4350 C.ar  104  TYR104      0.1957
    141  OH        76.7580   60.3460   -0.4950 O.3   104  TYR104     -0.2866
    142  N         78.7190   51.8880    4.0010 N.3   107  SER107     -0.1217
    143  CA        78.8000   51.4870    2.6020 C.3   107  SER107      0.1889
    144  C         80.2010   51.1430    2.1150 C.2   107  SER107      0.2288
    145  O         80.3720   50.2230    1.3180 O.2   107  SER107     -0.2866
    146  CB        78.2140   52.5750    1.7100 C.3   107  SER107      0.2089
    147  OG        76.8090   52.5920    1.8280 O.3   107  SER107     -0.2183
    148  N         80.5840   45.9870    1.1920 N.3   111  TYR111     -0.1241
    149  CA        80.7180   45.2370   -0.0540 C.3   111  TYR111      0.1605
    150  C         81.9370   44.3240   -0.1120 C.2   111  TYR111      0.2264
    151  O         82.1420   43.6210   -1.0950 O.2   111  TYR111     -0.2867
    152  CB        80.7530   46.2080   -1.2320 C.3   111  TYR111      0.0534
    153  CG        79.4380   46.9100   -1.4800 C.ar  111  TYR111     -0.0201
    154  CD1       78.4130   46.2780   -2.1790 C.ar  111  TYR111     -0.0009
    155  CD2       79.2170   48.2050   -1.0130 C.ar  111  TYR111     -0.0009
    156  CE1       77.1990   46.9210   -2.4120 C.ar  111  TYR111      0.0417
    157  CE2       78.0100   48.8540   -1.2380 C.ar  111  TYR111      0.0417
    158  CZ        77.0050   48.2080   -1.9380 C.ar  111  TYR111      0.1957
    159  OH        75.8040   48.8430   -2.1640 O.3   111  TYR111     -0.2866
    160  N         71.6860   48.2910    1.3950 N.3   204  GLN204     -0.1231
    161  CA        72.5690   48.6470    0.2960 C.3   204  GLN204      0.1698
    162  C         72.1160   47.8790   -0.9320 C.2   204  GLN204      0.2592
    163  O         70.9820   47.3840   -0.9840 O.2   204  GLN204     -0.2718
    164  CB        74.0280   48.2890    0.6120 C.3   204  GLN204      0.0381
    165  CG        74.8190   49.4200    1.2650 C.3   204  GLN204      0.0905
    166  CD        74.6320   49.4810    2.7690 C.2   204  GLN204      0.2608
    167  OE1       74.8730   50.5130    3.3990 O.2   204  GLN204     -0.2717
    168  NE2       74.2140   48.3640    3.3560 N.am  204  GLN204     -0.0878
    169  N         73.0010   47.7910   -1.9200 N.am  205  GLY205     -0.1957
    170  CA        72.6840   47.0500   -3.1210 C.3   205  GLY205      0.1869
    171  C         72.5810   45.5830   -2.7500 C.2   205  GLY205      0.2309
    172  O         73.2680   45.1140   -1.8400 O.2   205  GLY205     -0.2863
@<TRIPOS>BOND
     1    64    63    2
     2    63    62    1
     3    74    75    2
     4    74    73    1
     5    72    73    1
     6    65    62    1
     7    65    66    1
     8    62    61    1
     9    73    76    1
    10    76    77    1
    11    67    66    1
    12    67    68    1
    13    68    69    2
    14    61    49   am
    15    50    49    2
    16    77    78    1
    17    49    48    1
    18    78    79    1
    19    47    48    1
    20    69    71    1
    21    69    70    1
    22    48    51    1
    23    79    80    1
    24    51    52    1
    25    57    59   ar
    26    57    54   ar
    27    52    54   ar
    28    52    53   ar
    29    59    60   ar
    30    54    56   ar
    31    53    55   ar
    32    60    58   ar
    33    56    55   ar
    34    56    58   ar
    35    81    82    1
    36    82    83    1
    37    82    85    1
    38    84    83    2
    39    83    89   am
    40    26    25   ar
    41    26    24   ar
    42    85    86    1
    43    96    94    1
    44    25    23   ar
    45    94    95    1
    46    94    93    1
    47    86    87    2
    48    86    88   am
    49    24    22   ar
    50    89    90    1
    51    93    90    1
    52    23    20   ar
    53    90    91    1
    54    22    20   ar
    55    22    21   ar
    56   100    99    2
    57   112   110   am
    58    99    98    1
    59    20    18   ar
    60     1     2    1
    61    21    19   ar
    62     4     3    2
    63    91    92    2
    64    91    97   am
    65   104   105    1
    66   109   110    1
    67   109   108    1
    68    98    97    1
    69    98   101    1
    70   110   111    2
    71     2     3    1
    72     2     5    1
    73     3    13   am
    74    97   103    1
    75    18    19   ar
    76    18    17    1
    77    13    14    1
    78    14    17    1
    79    14    15    1
    80   108   105    1
    81   105   106    1
    82   101   102    1
    83     5     6    1
    84   103   102    1
    85     7     6   ar
    86     7     9   ar
    87    15    16    2
    88   106   107    2
    89   106   113   am
    90     6     8   ar
    91     9    11   ar
    92   113   114    1
    93     8    10   ar
    94    11    10   ar
    95    11    12    1
    96   114   117    1
    97   114   115    1
    98    45    44    1
    99    33    31    1
   100    27    28    1
   101   117   118    1
   102    34    32    1
   103   115   116    2
   104   170   171    1
   105   170   169    1
   106    32    31    1
   107   171   172    2
   108   156   154   ar
   109   156   158   ar
   110    31    28    1
   111    44    43    1
   112    44    46    1
   113   154   153   ar
   114   159   158    1
   115    28    29    1
   116    43    40    1
   117   158   157   ar
   118   169   162   am
   119    30    29    2
   120   153   152    1
   121   153   155   ar
   122   157   155   ar
   123   152   149    1
   124    39    40    1
   125    39    37   am
   126   151   150    2
   127    41    40    1
   128    41    42    2
   129   163   162    2
   130   162   161    1
   131   141   140    1
   132    36    37    1
   133    36    35    1
   134    37    38    2
   135   150   149    1
   136   149   148    1
   137   161   164    1
   138   161   160    1
   139   140   139   ar
   140   140   138   ar
   141   164   165    1
   142   139   137   ar
   143   138   136   ar
   144   165   166    1
   145   145   144    2
   146   137   135   ar
   147   146   147    1
   148   146   143    1
   149   136   135   ar
   150   144   143    1
   151   135   134    1
   152   143   142    1
   153   166   168   am
   154   166   167    2
   155   134   131    1
   156   129   127    1
   157   133   132    2
   158   131   132    1
   159   131   130    1
   160   127   128    1
   161   127   126    2
   162   126   125    1
   163   124   125    1
   164   124   123    1
   165   130   121   am
   166   122   121    2
   167   121   120    1
   168   123   120    1
   169   120   119    1
