@<TRIPOS>MOLECULE
tmp/1m9hA00.pdb
 225 222 0 0 0
SMALL
GASTEIGER

@<TRIPOS>ATOM
      1  N         36.3400    7.8410    8.6710 N.3    19  GLY19      -0.1225
      2  CA        34.9500    8.1700    8.4450 C.3    19  GLY19       0.1811
      3  C         34.5510    7.7170    7.0510 C.2    19  GLY19       0.2280
      4  O         35.2670    7.9620    6.0860 O.2    19  GLY19      -0.2866
      5  N         31.7570    8.5130    5.4760 N.3    21  TYR21      -0.1227
      6  CA        30.7410    9.3180    4.9200 C.3    21  TYR21       0.1736
      7  C         31.0990    9.5370    3.4660 C.2    21  TYR21       0.2595
      8  O         32.2790    9.6820    3.1480 O.2    21  TYR21      -0.2718
      9  CB        30.7590   10.6410    5.6330 C.3    21  TYR21       0.0548
     10  CG        29.9810   11.6280    4.8810 C.ar   21  TYR21      -0.0200
     11  CD1       28.6860   11.3030    4.4890 C.ar   21  TYR21      -0.0009
     12  CD2       30.5080   12.8700    4.5390 C.ar   21  TYR21      -0.0009
     13  CE1       27.9010   12.2010    3.7730 C.ar   21  TYR21       0.0417
     14  CE2       29.7340   13.7880    3.8310 C.ar   21  TYR21       0.0417
     15  CZ        28.4360   13.4470    3.4450 C.ar   21  TYR21       0.1957
     16  OH        27.6810   14.3450    2.7380 O.3    21  TYR21      -0.2866
     17  N         30.1090    9.5510    2.5870 N.am   22  LYS22      -0.1980
     18  CA        30.3550    9.7570    1.1670 C.3    22  LYS22       0.1596
     19  C         30.8510    8.5280    0.4380 C.2    22  LYS22       0.2287
     20  O         30.8730    8.5200   -0.7890 O.2    22  LYS22      -0.2864
     21  CB        31.2690   10.9350    0.8580 C.3    22  LYS22       0.0298
     22  CG        30.7640   12.2460    1.4170 C.3    22  LYS22       0.0038
     23  CD        29.5190   12.7420    0.7070 C.3    22  LYS22       0.0206
     24  CE        29.8080   13.8350   -0.3110 C.3    22  LYS22       0.1093
     25  NZ        28.5880   14.3810   -0.9310 N.3    22  LYS22      -0.1314
     26  N         34.0180    5.4010   11.5240 N.3    44  ASP44      -0.1239
     27  CA        32.8790    6.2810   11.7040 C.3    44  ASP44       0.1674
     28  C         31.8730    6.1410   10.5570 C.2    44  ASP44       0.2266
     29  O         32.1520    6.5010    9.4050 O.2    44  ASP44      -0.2867
     30  CB        33.2860    7.7620   11.9910 C.3    44  ASP44       0.1410
     31  CG        32.1140    8.6910   12.2720 C.2    44  ASP44       0.3668
     32  OD1       31.4580    9.2160   11.3930 O.co2  44  ASP44      -0.2456
     33  OD2       31.8670    8.8660   13.5520 O.co2  44  ASP44      -0.2456
     34  N         24.1780    6.9980    5.9840 N.3    49  TYR49      -0.1241
     35  CA        25.2040    6.7420    4.9630 C.3    49  TYR49       0.1605
     36  C         24.8780    5.5300    4.1010 C.2    49  TYR49       0.2264
     37  O         25.4120    5.3620    3.0020 O.2    49  TYR49      -0.2867
     38  CB        26.6420    6.6240    5.5150 C.3    49  TYR49       0.0534
     39  CG        27.1350    7.7960    6.3370 C.ar   49  TYR49      -0.0201
     40  CD1       26.5320    9.0530    6.2850 C.ar   49  TYR49      -0.0009
     41  CD2       28.2460    7.6350    7.1640 C.ar   49  TYR49      -0.0009
     42  CE1       27.0150   10.1160    7.0530 C.ar   49  TYR49       0.0417
     43  CE2       28.7370    8.6820    7.9450 C.ar   49  TYR49       0.0417
     44  CZ        28.1150    9.9300    7.8860 C.ar   49  TYR49       0.1957
     45  OH        28.5720   10.9750    8.6530 O.3    49  TYR49      -0.2866
     46  N         25.2090    6.3730   13.8190 N.3    74  LYS74      -0.1245
     47  CA        24.3750    7.4720   14.2800 C.3    74  LYS74       0.1561
     48  C         22.9050    7.2820   14.0150 C.2    74  LYS74       0.2260
     49  O         22.5140    6.6210   13.0460 O.2    74  LYS74      -0.2867
     50  CB        24.8260    8.7640   13.6290 C.3    74  LYS74       0.0271
     51  CG        26.3270    8.8050   13.3890 C.3    74  LYS74       0.0035
     52  CD        26.8330   10.2090   13.0840 C.3    74  LYS74       0.0206
     53  CE        28.3270   10.2530   12.8090 C.3    74  LYS74       0.1093
     54  NZ        28.6840    9.6880   11.5010 N.3    74  LYS74      -0.1314
     55  N         22.2500   11.9050   15.2660 N.3   107  HIS107     -0.1226
     56  CA        22.7590   12.6040   14.0900 C.3   107  HIS107      0.1752
     57  C         22.5790   14.1260   14.0440 C.2   107  HIS107      0.2596
     58  O         23.5320   14.8660   13.7860 O.2   107  HIS107     -0.2718
     59  CB        22.3320   11.9430   12.7690 C.3   107  HIS107      0.0759
     60  CG        23.4290   11.9920   11.7520 C.ar  107  HIS107      0.0818
     61  ND1       23.6960   10.9190   10.9150 N.ar  107  HIS107     -0.2268
     62  CD2       24.3210   12.9790   11.4730 C.ar  107  HIS107      0.1154
     63  CE1       24.7220   11.2750   10.1520 C.ar  107  HIS107      0.1986
     64  NE2       25.1200   12.5060   10.4630 N.ar  107  HIS107     -0.2212
     65  N         21.3450   14.5770   14.2570 N.am  108  TRP108     -0.1976
     66  CA        20.9780   15.9910   14.2240 C.3   108  TRP108      0.1640
     67  C         19.9570   16.2850   15.3240 C.2   108  TRP108      0.2290
     68  O         19.1960   15.3980   15.7200 O.2   108  TRP108     -0.2864
     69  CB        20.3550   16.3500   12.8460 C.3   108  TRP108      0.0576
     70  CG        21.3370   16.3680   11.7000 C.ar  108  TRP108      0.0006
     71  CD1       21.6680   15.3220   10.8890 C.ar  108  TRP108      0.0946
     72  CD2       22.1000   17.4970   11.2290 C.ar  108  TRP108      0.0152
     73  NE1       22.6030   15.7150    9.9560 N.ar  108  TRP108     -0.2442
     74  CE2       22.8850   17.0460   10.1400 C.ar  108  TRP108      0.0810
     75  CE3       22.1890   18.8370   11.6300 C.ar  108  TRP108      0.0012
     76  CZ2       23.7520   17.9060    9.4590 C.ar  108  TRP108      0.0191
     77  CZ3       23.0540   19.6850   10.9590 C.ar  108  TRP108      0.0001
     78  CH2       23.8180   19.2240    9.8830 C.ar  108  TRP108      0.0015
     79  N         25.3180   14.9560   17.8830 N.3   138  SER138     -0.1202
     80  CA        25.9540   15.5570   16.7590 C.3   138  SER138      0.2020
     81  C         25.2200   16.7850   16.3210 C.2   138  SER138      0.2618
     82  O         23.9950   16.8040   16.2710 O.2   138  SER138     -0.2717
     83  CB        26.0220   14.5460   15.6090 C.3   138  SER138      0.2103
     84  OG        26.6280   15.1080   14.4590 O.3   138  SER138     -0.2182
     85  N         25.9770   17.8090   15.9900 N.am  139  ASN139     -0.1974
     86  CA        25.3700   19.0150   15.5160 C.3   139  ASN139      0.1688
     87  C         24.4830   19.6990   16.5400 C.2   139  ASN139      0.2292
     88  O         23.5830   20.4610   16.1950 O.2   139  ASN139     -0.2864
     89  CB        24.6280   18.7330   14.2040 C.3   139  ASN139      0.1181
     90  CG        25.5840   18.2500   13.1250 C.2   139  ASN139      0.2629
     91  OD1       26.6530   18.8460   12.9170 O.2   139  ASN139     -0.2716
     92  ND2       25.2030   17.1810   12.4310 N.am  139  ASN139     -0.0877
     93  N         29.7270   15.6420   17.9250 N.3   160  GLN160     -0.1245
     94  CA        30.3150   15.6420   16.6080 C.3   160  GLN160      0.1566
     95  C         29.7810   16.8170   15.8050 C.2   160  GLN160      0.2260
     96  O         28.6030   16.8610   15.4650 O.2   160  GLN160     -0.2867
     97  CB        30.0740   14.3010   15.8900 C.3   160  GLN160      0.0367
     98  CG        30.8490   14.2440   14.5610 C.3   160  GLN160      0.0905
     99  CD        30.7330   12.9230   13.8480 C.2   160  GLN160      0.2608
    100  OE1       30.3340   12.8610   12.6760 O.2   160  GLN160     -0.2717
    101  NE2       31.1340   11.8540   14.5300 N.am  160  GLN160     -0.0878
    102  N         33.9180   17.0170   12.4390 N.3   186  TRP186     -0.1227
    103  CA        33.5360   16.5350   11.1470 C.3   186  TRP186      0.1737
    104  C         33.9060   17.5580   10.0850 C.2   186  TRP186      0.2596
    105  O         33.9050   18.7560   10.3570 O.2   186  TRP186     -0.2718
    106  CB        32.1650   15.8640   11.0210 C.3   186  TRP186      0.0564
    107  CG        30.9550   16.7300   11.0810 C.ar  186  TRP186      0.0003
    108  CD1       30.0990   16.7920   12.1300 C.ar  186  TRP186      0.0946
    109  CD2       30.3500   17.5130   10.0190 C.ar  186  TRP186      0.0152
    110  NE1       29.0330   17.5980   11.8400 N.ar  186  TRP186     -0.2442
    111  CE2       29.1530   18.0600   10.5530 C.ar  186  TRP186      0.0810
    112  CE3       30.7180   17.8390    8.7060 C.ar  186  TRP186      0.0012
    113  CZ2       28.3290   18.9100    9.8050 C.ar  186  TRP186      0.0191
    114  CZ3       29.9020   18.6800    7.9710 C.ar  186  TRP186      0.0001
    115  CH2       28.7170   19.2090    8.5150 C.ar  186  TRP186      0.0015
    116  N         34.2620   17.0850    8.8940 N.am  187  GLY187     -0.1943
    117  CA        34.7320   17.9710    7.8500 C.3   187  GLY187      0.1998
    118  C         36.0120   18.6710    8.3340 C.2   187  GLY187      0.2481
    119  O         36.2040   19.8560    8.0840 O.2   187  GLY187     -0.2729
    120  N         36.8860   17.9290    9.0590 N.am  188  PRO188     -0.2715
    121  CA        38.1260   18.4840    9.6300 C.3   188  PRO188      0.1536
    122  C         38.9870   19.2700    8.6280 C.2   188  PRO188      0.2598
    123  O         39.7270   20.1850    8.9880 O.2   188  PRO188     -0.2715
    124  CB        38.9420   17.2730   10.1020 C.3   188  PRO188      0.0310
    125  CG        38.3730   16.0600    9.3930 C.3   188  PRO188      0.0237
    126  CD        36.9780   16.4390    8.9490 C.3   188  PRO188      0.0939
    127  N         38.8950   18.8680    7.3650 N.am  189  LEU189     -0.1978
    128  CA        39.6460   19.4650    6.2780 C.3   189  LEU189      0.1596
    129  C         38.8030   20.3520    5.3520 C.2   189  LEU189      0.2287
    130  O         39.1960   20.6040    4.2090 O.2   189  LEU189     -0.2864
    131  CB        40.3240   18.3640    5.4250 C.3   189  LEU189      0.0297
    132  CG        41.3040   17.4670    6.1780 C.3   189  LEU189      0.0022
    133  CD1       41.6270   16.2320    5.3330 C.3   189  LEU189      0.0001
    134  CD2       42.5940   18.2310    6.4940 C.3   189  LEU189      0.0001
    135  N         36.1850   19.6110    3.6830 N.3   191  GLN191     -0.1231
    136  CA        35.4910   18.8910    2.6170 C.3   191  GLN191      0.1698
    137  C         35.8480   19.4000    1.2380 C.2   191  GLN191      0.2592
    138  O         35.0910   19.2240    0.2800 O.2   191  GLN191     -0.2718
    139  CB        33.9790   19.0170    2.7850 C.3   191  GLN191      0.0381
    140  CG        33.4720   18.3320    4.0500 C.3   191  GLN191      0.0905
    141  CD        32.0900   18.8060    4.4260 C.2   191  GLN191      0.2608
    142  OE1       31.7500   19.9840    4.2470 O.2   191  GLN191     -0.2717
    143  NE2       31.2800   17.8840    4.9370 N.am  191  GLN191     -0.0878
    144  N         36.9940   20.0540    1.1580 N.am  192  GLY192     -0.1957
    145  CA        37.4880   20.6130   -0.0820 C.3   192  GLY192      0.1869
    146  C         36.6800   21.8210   -0.5340 C.2   192  GLY192      0.2309
    147  O         36.8360   22.3190   -1.6470 O.2   192  GLY192     -0.2863
    148  N         44.2470   24.2820    2.3300 N.3   197  PHE197     -0.1241
    149  CA        45.6270   23.8770    2.1480 C.3   197  PHE197      0.1605
    150  C         46.5240   24.9990    1.6540 C.2   197  PHE197      0.2264
    151  O         47.7530   24.8920    1.6700 O.2   197  PHE197     -0.2867
    152  CB        45.7420   22.6380    1.2390 C.3   197  PHE197      0.0534
    153  CG        45.0260   21.4400    1.8090 C.ar  197  PHE197     -0.0203
    154  CD1       44.8100   21.3420    3.1840 C.ar  197  PHE197     -0.0042
    155  CD2       44.5610   20.4160    0.9810 C.ar  197  PHE197     -0.0042
    156  CE1       44.1500   20.2380    3.7260 C.ar  197  PHE197     -0.0003
    157  CE2       43.9050   19.3010    1.5020 C.ar  197  PHE197     -0.0003
    158  CZ        43.6970   19.2220    2.8800 C.ar  197  PHE197     -0.0000
    159  N         47.4850   18.9920    4.8720 N.3   214  ALA214     -0.1245
    160  CA        46.4560   18.1260    5.4330 C.3   214  ALA214      0.1562
    161  C         46.8900   17.6300    6.8010 C.2   214  ALA214      0.2260
    162  O         46.1530   17.6990    7.7880 O.2   214  ALA214     -0.2867
    163  CB        46.2000   16.9370    4.5180 C.3   214  ALA214      0.0290
    164  N         38.3510   11.9720   11.9460 N.3   229  PHE229     -0.1228
    165  CA        38.1170   10.7910   11.1100 C.3   229  PHE229      0.1721
    166  C         37.8970   11.2250    9.6600 C.2   229  PHE229      0.2437
    167  O         36.8330   10.9610    9.0900 O.2   229  PHE229     -0.2733
    168  CB        36.8710    9.9900   11.6060 C.3   229  PHE229      0.0547
    169  CG        35.9280   10.8700   12.3950 C.ar  229  PHE229     -0.0202
    170  CD1       36.1860   11.0950   13.7450 C.ar  229  PHE229     -0.0042
    171  CD2       34.8320   11.5130   11.8110 C.ar  229  PHE229     -0.0042
    172  CE1       35.3810   11.9320   14.5150 C.ar  229  PHE229     -0.0003
    173  CE2       34.0130   12.3590   12.5620 C.ar  229  PHE229     -0.0003
    174  CZ        34.2940   12.5660   13.9140 C.ar  229  PHE229     -0.0000
    175  N         38.9010   11.9140    9.0740 N.am  230  PRO230     -0.2718
    176  CA        38.8050   12.4140    7.7130 C.3   230  PRO230      0.1535
    177  C         38.4870   11.3280    6.7190 C.2   230  PRO230      0.2599
    178  O         38.8950   10.1720    6.8710 O.2   230  PRO230     -0.2715
    179  CB        40.1680   12.9970    7.3630 C.3   230  PRO230      0.0310
    180  CG        41.1460   12.4580    8.3820 C.3   230  PRO230      0.0237
    181  CD        40.3230   11.8400    9.5010 C.3   230  PRO230      0.0939
    182  N         37.7500   11.7330    5.6950 N.am  231  GLY231     -0.1941
    183  CA        37.3570   10.8500    4.6360 C.3   231  GLY231      0.2014
    184  C         38.3760   10.8660    3.5140 C.2   231  GLY231      0.2640
    185  O         39.0140   11.8850    3.2380 O.2   231  GLY231     -0.2714
    186  N         38.5130    9.7140    2.8710 N.am  232  SER232     -0.1935
    187  CA        39.4390    9.5430    1.7730 C.3   232  SER232      0.2055
    188  C         39.4240    8.1240    1.2420 C.2   232  SER232      0.2642
    189  O         39.2890    7.1600    1.9940 O.2   232  SER232     -0.2714
    190  CB        40.8520    9.9000    2.1860 C.3   232  SER232      0.2130
    191  OG        41.3170    8.9480    3.1180 O.3   232  SER232     -0.2179
    192  N         39.5710    8.0070   -0.0720 N.am  233  VAL233     -0.1977
    193  CA        39.6080    6.7100   -0.7100 C.3   233  VAL233      0.1596
    194  C         41.0040    6.3810   -1.2500 C.2   233  VAL233      0.2287
    195  O         41.3340    5.2230   -1.5100 O.2   233  VAL233     -0.2864
    196  CB        38.4580    6.4540   -1.6950 C.3   233  VAL233      0.0276
    197  CG1       37.1210    6.4480   -0.9490 C.3   233  VAL233      0.0022
    198  CG2       38.4430    7.5110   -2.7950 C.3   233  VAL233      0.0022
    199  N         46.4730    9.1360    0.8240 N.3   237  HIS237     -0.1241
    200  CA        45.9700   10.0140    1.8470 C.3   237  HIS237      0.1621
    201  C         45.6960    9.2600    3.1400 C.2   237  HIS237      0.2264
    202  O         45.8200    9.7990    4.2330 O.2   237  HIS237     -0.2867
    203  CB        44.7340   10.7640    1.3570 C.3   237  HIS237      0.0745
    204  CG        45.0750   11.7230    0.2770 C.ar  237  HIS237      0.0817
    205  ND1       44.1010   12.2280   -0.5640 N.ar  237  HIS237     -0.2268
    206  CD2       46.2730   12.2610   -0.0790 C.ar  237  HIS237      0.1154
    207  CE1       44.7140   13.0520   -1.4020 C.ar  237  HIS237      0.1986
    208  NE2       46.0190   13.0930   -1.1390 N.ar  237  HIS237     -0.2212
    209  N         49.0070    8.7820    4.7730 N.3   240  GLU240     -0.1231
    210  CA        49.4140   10.1180    5.0950 C.3   240  GLU240      0.1699
    211  C         48.7080   10.6580    6.3250 C.2   240  GLU240      0.2592
    212  O         49.3380   11.1950    7.2320 O.2   240  GLU240     -0.2718
    213  CB        49.1670   11.0100    3.8770 C.3   240  GLU240      0.0402
    214  CG        49.4050   12.5030    4.1090 C.3   240  GLU240      0.1161
    215  CD        49.3900   13.2320    2.8020 C.2   240  GLU240      0.3649
    216  OE1       49.8370   12.7480    1.7770 O.co2 240  GLU240     -0.2457
    217  OE2       48.7840   14.3950    2.8670 O.co2 240  GLU240     -0.2457
    218  N         47.3890   10.5180    6.3410 N.am  241  ASN241     -0.1974
    219  CA        46.5770   11.0010    7.4470 C.3   241  ASN241      0.1688
    220  C         46.8610   10.2620    8.7500 C.2   241  ASN241      0.2292
    221  O         46.5780   10.7450    9.8420 O.2   241  ASN241     -0.2864
    222  CB        45.0750   10.9710    7.1100 C.3   241  ASN241      0.1181
    223  CG        44.6760   11.9100    5.9870 C.2   241  ASN241      0.2629
    224  OD1       45.2920   12.9760    5.7870 O.2   241  ASN241     -0.2716
    225  ND2       43.6130   11.5350    5.2770 N.am  241  ASN241     -0.0877
@<TRIPOS>BOND
     1   198   196    1
     2   196   197    1
     3   196   193    1
     4   147   146    2
     5   195   194    2
     6   207   208   ar
     7   207   205   ar
     8   194   193    1
     9   208   206   ar
    10    25    24    1
    11    20    19    2
    12   193   192    1
    13   205   204   ar
    14   146   145    1
    15    24    23    1
    16   145   144    1
    17   206   204   ar
    18   192   188   am
    19   204   203    1
    20   138   137    2
    21    19    18    1
    22    23    22    1
    23   199   200    1
    24    21    18    1
    25    21    22    1
    26   155   157   ar
    27   155   153   ar
    28   144   137   am
    29    18    17    1
    30   137   136    1
    31   152   153    1
    32   152   149    1
    33   188   187    1
    34   188   189    2
    35   203   200    1
    36   157   158   ar
    37   150   151    2
    38   150   149    1
    39   187   190    1
    40   187   186    1
    41   216   215   ar
    42   153   154   ar
    43   200   201    1
    44   149   148    1
    45   190   191    1
    46    17     7   am
    47   136   139    1
    48   136   135    1
    49    16    15    1
    50   139   140    1
    51   215   217   ar
    52   215   214    1
    53   186   184   am
    54   158   156   ar
    55    37    36    2
    56   201   202    2
    57     8     7    2
    58   154   156   ar
    59   185   184    2
    60    15    13   ar
    61    15    14   ar
    62     7     6    1
    63   184   183    1
    64    13    11   ar
    65    14    12   ar
    66   213   214    1
    67   213   210    1
    68   140   141    1
    69    36    35    1
    70   130   129    2
    71   142   141    2
    72   141   143   am
    73    11    10   ar
    74   163   160    1
    75    12    10   ar
    76   183   182    1
    77   209   210    1
    78   159   160    1
    79    10     9    1
    80     6     5    1
    81     6     9    1
    82    35    38    1
    83    35    34    1
    84   210   211    1
    85   225   223   am
    86   133   132    1
    87   129   128    1
    88   131   132    1
    89   131   128    1
    90   160   161    1
    91    38    39    1
    92   182   177   am
    93   224   223    2
    94   223   222    1
    95     4     3    2
    96   132   134    1
    97   128   127    1
    98    40    39   ar
    99    40    42   ar
   100   211   218   am
   101   211   212    2
   102    39    41   ar
   103   218   219    1
   104   177   178    2
   105   177   176    1
   106   161   162    2
   107     3     2    1
   108    42    44   ar
   109   222   219    1
   110    41    43   ar
   111   179   176    1
   112   179   180    1
   113   127   122   am
   114   219   220    1
   115   176   175    1
   116   117   118    1
   117   117   116    1
   118    44    43   ar
   119    44    45    1
   120   114   115   ar
   121   114   112   ar
   122   119   118    2
   123   118   120   am
   124   180   181    1
   125     2     1    1
   126   115   113   ar
   127   122   123    2
   128   122   121    1
   129   112   109   ar
   130   220   221    2
   131   116   104   am
   132   126   120    1
   133   126   125    1
   134   120   121    1
   135   175   181    1
   136   175   166   am
   137   167   166    2
   138   125   124    1
   139    29    28    2
   140    76    78   ar
   141    76    74   ar
   142   121   124    1
   143   166   165    1
   144   113   111   ar
   145    78    77   ar
   146    73    74   ar
   147    73    71   ar
   148   109   111   ar
   149   109   107   ar
   150   104   105    2
   151   104   103    1
   152    74    72   ar
   153    63    64   ar
   154    63    61   ar
   155    64    62   ar
   156   111   110   ar
   157    28    27    1
   158    71    70   ar
   159    61    60   ar
   160    77    75   ar
   161   106   107    1
   162   106   103    1
   163   107   108   ar
   164   165   168    1
   165   165   164    1
   166   103   102    1
   167    72    75   ar
   168    72    70   ar
   169    32    31   ar
   170    62    60   ar
   171    54    53    1
   172    26    27    1
   173   168   169    1
   174    70    69    1
   175    27    30    1
   176    60    59    1
   177   171   169   ar
   178   171   173   ar
   179   110   108   ar
   180    30    31    1
   181    31    33   ar
   182   169   170   ar
   183    92    90   am
   184   173   174   ar
   185   100    99    2
   186    59    56    1
   187    53    52    1
   188    69    66    1
   189    91    90    2
   190    49    48    2
   191    52    51    1
   192    90    89    1
   193    51    50    1
   194    50    47    1
   195   170   172   ar
   196    58    57    2
   197    46    47    1
   198    99   101   am
   199    99    98    1
   200   174   172   ar
   201    48    47    1
   202    57    56    1
   203    57    65   am
   204    56    55    1
   205    89    86    1
   206    66    65    1
   207    66    67    1
   208    84    83    1
   209    98    97    1
   210    67    68    2
   211    96    95    2
   212    86    85    1
   213    86    87    1
   214    83    80    1
   215    95    94    1
   216    97    94    1
   217    85    81   am
   218    88    87    2
   219    82    81    2
   220    81    80    1
   221    94    93    1
   222    80    79    1
