@<TRIPOS>MOLECULE
tmp/1m9jB01.pdb
 93 92 0 0 0
SMALL
GASTEIGER

@<TRIPOS>ATOM
      1  N         17.3700   11.1670   24.3110 N.3   104  CYS104     -0.1235
      2  CA        17.1760   12.4140   23.5410 C.3   104  CYS104      0.1677
      3  C         15.8600   13.1810   23.8160 C.2   104  CYS104      0.2270
      4  O         14.7800   12.7820   23.3780 O.2   104  CYS104     -0.2867
      5  CB        17.2840   12.1350   22.0340 C.3   104  CYS104      0.0956
      6  SG        17.1750   13.6360   21.0210 S.3   104  CYS104     -0.0801
      7  N         32.9130   13.8650   18.2710 N.3   167  GLN167     -0.1245
      8  CA        32.0040   14.8280   17.6250 C.3   167  GLN167      0.1566
      9  C         32.7930   15.4560   16.4940 C.2   167  GLN167      0.2260
     10  O         34.0210   15.4920   16.5710 O.2   167  GLN167     -0.2867
     11  CB        31.5240   15.9200   18.5760 C.3   167  GLN167      0.0367
     12  CG        30.3050   15.5590   19.3870 C.3   167  GLN167      0.0905
     13  CD        29.9920   16.5970   20.4440 C.2   167  GLN167      0.2608
     14  OE1       30.1920   17.7970   20.2410 O.2   167  GLN167     -0.2717
     15  NE2       29.5110   16.1380   21.5910 N.am  167  GLN167     -0.0878
     16  N         26.3520   20.7170   17.2520 N.3   254  PRO254     -0.2116
     17  CA        26.6070   19.5200   18.0580 C.3   254  PRO254      0.1372
     18  C         26.4060   18.3130   17.1340 C.2   254  PRO254      0.2244
     19  O         25.3070   18.0520   16.6500 O.2   254  PRO254     -0.2868
     20  CB        25.5520   19.6220   19.1570 C.3   254  PRO254      0.0268
     21  CG        24.4250   20.2380   18.4890 C.3   254  PRO254      0.0207
     22  CD        25.0490   21.3070   17.6090 C.3   254  PRO254      0.0892
     23  N         27.3830   14.2620   17.0040 N.3   256  VAL256     -0.1245
     24  CA        27.9340   12.9890   17.4690 C.3   256  VAL256      0.1561
     25  C         28.4210   12.1900   16.2680 C.2   256  VAL256      0.2260
     26  O         27.6800   12.0000   15.3130 O.2   256  VAL256     -0.2867
     27  CB        26.8590   12.1770   18.1930 C.3   256  VAL256      0.0252
     28  CG1       27.3950   10.8060   18.6120 C.3   256  VAL256      0.0019
     29  CG2       26.3510   12.9580   19.3780 C.3   256  VAL256      0.0019
     30  N         25.6560   12.3060   12.9820 N.3   273  PHE273     -0.1227
     31  CA        24.3670   12.9920   12.9610 C.3   273  PHE273      0.1736
     32  C         24.4570   14.2590   13.7940 C.2   273  PHE273      0.2596
     33  O         25.2980   14.3530   14.6890 O.2   273  PHE273     -0.2718
     34  CB        23.2580   12.0890   13.5230 C.3   273  PHE273      0.0547
     35  CG        23.5470   11.5360   14.9020 C.ar  273  PHE273     -0.0202
     36  CD1       23.1360   12.2160   16.0400 C.ar  273  PHE273     -0.0042
     37  CD2       24.2140   10.3230   15.0560 C.ar  273  PHE273     -0.0042
     38  CE1       23.3830   11.6960   17.3170 C.ar  273  PHE273     -0.0003
     39  CE2       24.4650    9.7960   16.3240 C.ar  273  PHE273     -0.0003
     40  CZ        24.0480   10.4850   17.4540 C.ar  273  PHE273     -0.0000
     41  N         23.5780   15.2190   13.5170 N.am  274  SER274     -0.1938
     42  CA        23.5670   16.4700   14.2530 C.3   274  SER274      0.2055
     43  C         22.2010   17.1350   14.3100 C.2   274  SER274      0.2644
     44  O         21.3380   16.9170   13.4500 O.2   274  SER274     -0.2714
     45  CB        24.5540   17.4540   13.6310 C.3   274  SER274      0.2130
     46  OG        24.1340   17.8280   12.3310 O.3   274  SER274     -0.2179
     47  N         22.0520   17.9960   15.3150 N.am  275  GLY275     -0.1939
     48  CA        20.8370   18.7610   15.5120 C.3   275  GLY275      0.2014
     49  C         21.2840   20.1620   15.9040 C.2   275  GLY275      0.2639
     50  O         22.0200   20.8370   15.1580 O.2   275  GLY275     -0.2714
     51  N         20.8280   20.6090   17.0680 N.am  276  TRP276     -0.1959
     52  CA        21.1940   21.9060   17.5950 C.3   276  TRP276      0.1771
     53  C         21.2450   21.7810   19.1070 C.2   276  TRP276      0.2620
     54  O         20.7160   20.8210   19.6780 O.2   276  TRP276     -0.2715
     55  CB        20.2260   23.0150   17.1460 C.3   276  TRP276      0.0590
     56  CG        18.7440   22.7450   17.3540 C.ar  276  TRP276      0.0006
     57  CD1       18.0290   22.8540   18.5150 C.ar  276  TRP276      0.0946
     58  CD2       17.7940   22.3960   16.3320 C.ar  276  TRP276      0.0152
     59  NE1       16.6910   22.6050   18.2730 N.ar  276  TRP276     -0.2442
     60  CE2       16.5230   22.3180   16.9440 C.ar  276  TRP276      0.0810
     61  CE3       17.8960   22.1460   14.9550 C.ar  276  TRP276      0.0012
     62  CZ2       15.3620   21.9990   16.2290 C.ar  276  TRP276      0.0191
     63  CZ3       16.7460   21.8320   14.2430 C.ar  276  TRP276      0.0001
     64  CH2       15.4930   21.7600   14.8830 C.ar  276  TRP276      0.0015
     65  N         21.9210   22.7350   19.7380 N.am  277  TYR277     -0.1960
     66  CA        22.1150   22.7720   21.1850 C.3   277  TYR277      0.1771
     67  C         20.9850   23.2420   22.1000 C.2   277  TYR277      0.2619
     68  O         20.1830   24.1250   21.7630 O.2   277  TYR277     -0.2715
     69  CB        23.3410   23.6250   21.5190 C.3   277  TYR277      0.0574
     70  CG        24.6420   22.8610   21.6000 C.ar  277  TYR277     -0.0198
     71  CD1       24.8250   21.8590   22.5520 C.ar  277  TYR277     -0.0009
     72  CD2       25.7070   23.1710   20.7570 C.ar  277  TYR277     -0.0009
     73  CE1       26.0400   21.1900   22.6650 C.ar  277  TYR277      0.0417
     74  CE2       26.9220   22.5120   20.8590 C.ar  277  TYR277      0.0417
     75  CZ        27.0860   21.5290   21.8120 C.ar  277  TYR277      0.1957
     76  OH        28.3060   20.9120   21.9050 O.3   277  TYR277     -0.2866
     77  N         20.9130   22.5730   23.2450 N.am  278  MET278     -0.1977
     78  CA        19.9960   22.9450   24.3100 C.3   278  MET278      0.1605
     79  C         20.9600   23.6230   25.3110 C.2   278  MET278      0.2287
     80  O         21.9080   22.9980   25.7880 O.2   278  MET278     -0.2864
     81  CB        19.3120   21.7250   24.9350 C.3   278  MET278      0.0413
     82  CG        18.6670   22.0760   26.2660 C.3   278  MET278      0.0598
     83  SD        17.5030   20.8740   26.9170 S.3   278  MET278     -0.1393
     84  CE        18.6640   19.6680   27.7490 C.3   278  MET278      0.0692
     85  N         23.3490   22.0520   28.0750 N.3   281  GLU281     -0.1245
     86  CA        24.4500   21.2110   27.6560 C.3   281  GLU281      0.1567
     87  C         25.7660   21.9790   27.6140 C.2   281  GLU281      0.2260
     88  O         26.8180   21.4280   27.9560 O.2   281  GLU281     -0.2867
     89  CB        24.1680   20.6030   26.2910 C.3   281  GLU281      0.0388
     90  CG        23.4670   19.2690   26.3510 C.3   281  GLU281      0.1160
     91  CD        24.3310   18.1590   26.9270 C.2   281  GLU281      0.3649
     92  OE1       24.0610   17.7230   28.0670 O.co2 281  GLU281     -0.2457
     93  OE2       25.2690   17.7070   26.2330 O.co2 281  GLU281     -0.2457
@<TRIPOS>BOND
     1    46    45    1
     2    31    30    1
     3    31    34    1
     4    31    32    1
     5    44    43    2
     6    41    32   am
     7    41    42    1
     8    34    35    1
     9    45    42    1
    10    32    33    2
    11    63    64   ar
    12    63    61   ar
    13    42    43    1
    14    43    47   am
    15    64    62   ar
    16    35    37   ar
    17    35    36   ar
    18    61    58   ar
    19    37    39   ar
    20    50    49    2
    21    26    25    2
    22    47    48    1
    23    48    49    1
    24    49    51   am
    25    36    38   ar
    26    62    60   ar
    27    25    24    1
    28    39    40   ar
    29    58    60   ar
    30    58    56   ar
    31     9    10    2
    32     9     8    1
    33    19    18    2
    34    60    59   ar
    35    23    24    1
    36    51    52    1
    37    18    17    1
    38    55    56    1
    39    55    52    1
    40    16    22    1
    41    16    17    1
    42    38    40   ar
    43    56    57   ar
    44    24    27    1
    45    52    53    1
    46    22    21    1
    47     8     7    1
    48     8    11    1
    49    17    20    1
    50    27    28    1
    51    27    29    1
    52    59    57   ar
    53    21    20    1
    54    11    12    1
    55    53    54    2
    56    53    65   am
    57    12    13    1
    58    65    66    1
    59    14    13    2
    60    13    15   am
    61    72    74   ar
    62    72    70   ar
    63    74    75   ar
    64     6     5    1
    65    66    69    1
    66    66    67    1
    67    69    70    1
    68    70    71   ar
    69    68    67    2
    70    75    76    1
    71    75    73   ar
    72     5     2    1
    73    67    77   am
    74    71    73   ar
    75    77    78    1
    76     4     3    2
    77     2     3    1
    78     2     1    1
    79    78    81    1
    80    78    79    1
    81    81    82    1
    82    79    80    2
    83    93    91   ar
    84    82    83    1
    85    89    90    1
    86    89    86    1
    87    90    91    1
    88    83    84    1
    89    91    92   ar
    90    87    86    1
    91    87    88    2
    92    86    85    1
