@<TRIPOS>MOLECULE
tmp/1m9mA01.pdb
 93 92 0 0 0
SMALL
GASTEIGER

@<TRIPOS>ATOM
      1  N         17.8790   11.0970   53.7380 N.3   104  CYS104     -0.1235
      2  CA        18.0500   12.3500   54.4660 C.3   104  CYS104      0.1677
      3  C         19.3570   13.0790   54.1520 C.2   104  CYS104      0.2270
      4  O         20.4460   12.5710   54.4300 O.2   104  CYS104     -0.2867
      5  CB        17.9330   12.1090   55.9750 C.3   104  CYS104      0.0956
      6  SG        18.0340   13.6280   56.9440 S.3   104  CYS104     -0.0801
      7  N          2.4980   14.0460   59.5160 N.3   167  GLN167     -0.1245
      8  CA         3.4030   14.9900   60.1740 C.3   167  GLN167      0.1566
      9  C          2.5820   15.5730   61.3190 C.2   167  GLN167      0.2260
     10  O          1.3480   15.5230   61.2780 O.2   167  GLN167     -0.2867
     11  CB         3.8580   16.1200   59.2430 C.3   167  GLN167      0.0367
     12  CG         4.7940   15.7000   58.1150 C.3   167  GLN167      0.0905
     13  CD         5.3300   16.8930   57.3340 C.2   167  GLN167      0.2608
     14  OE1        5.0950   18.0470   57.6930 O.2   167  GLN167     -0.2717
     15  NE2        6.0540   16.6150   56.2580 N.am  167  GLN167     -0.0878
     16  N          8.9460   20.7370   60.5130 N.3   254  PRO254     -0.2116
     17  CA         8.6680   19.5510   59.6990 C.3   254  PRO254      0.1372
     18  C          8.8450   18.3660   60.6490 C.2   254  PRO254      0.2244
     19  O          9.9640   18.0400   61.0600 O.2   254  PRO254     -0.2868
     20  CB         9.7600   19.6050   58.6270 C.3   254  PRO254      0.0268
     21  CG        10.9110   20.2340   59.3350 C.3   254  PRO254      0.0207
     22  CD        10.2730   21.3020   60.1980 C.3   254  PRO254      0.0892
     23  N          7.8790   14.4930   60.9060 N.3   256  VAL256     -0.1245
     24  CA         7.3690   13.2220   60.4020 C.3   256  VAL256      0.1561
     25  C          6.8780   12.3880   61.5760 C.2   256  VAL256      0.2260
     26  O          7.6270   12.1230   62.5220 O.2   256  VAL256     -0.2867
     27  CB         8.4600   12.4460   59.6400 C.3   256  VAL256      0.0252
     28  CG1        7.9140   11.1040   59.1600 C.3   256  VAL256      0.0019
     29  CG2        8.9610   13.2740   58.4560 C.3   256  VAL256      0.0019
     30  N          9.5430   12.4340   64.8370 N.3   273  PHE273     -0.1227
     31  CA        10.8140   13.1490   64.8880 C.3   273  PHE273      0.1736
     32  C         10.7420   14.4340   64.0780 C.2   273  PHE273      0.2596
     33  O          9.8920   14.5770   63.1930 O.2   273  PHE273     -0.2718
     34  CB        11.9460   12.2610   64.3650 C.3   273  PHE273      0.0547
     35  CG        11.7300   11.7600   62.9670 C.ar  273  PHE273     -0.0202
     36  CD1       12.0820   12.5430   61.8720 C.ar  273  PHE273     -0.0042
     37  CD2       11.1910   10.4960   62.7450 C.ar  273  PHE273     -0.0042
     38  CE1       11.9020   12.0710   60.5770 C.ar  273  PHE273     -0.0003
     39  CE2       11.0070   10.0150   61.4530 C.ar  273  PHE273     -0.0003
     40  CZ        11.3630   10.8040   60.3640 C.ar  273  PHE273     -0.0000
     41  N         11.6650   15.3570   64.3480 N.am  274  SER274     -0.1938
     42  CA        11.6790   16.6230   63.6340 C.3   274  SER274      0.2055
     43  C         13.0490   17.2840   63.5940 C.2   274  SER274      0.2644
     44  O         13.8980   17.0520   64.4590 O.2   274  SER274     -0.2714
     45  CB        10.6640   17.5930   64.2490 C.3   274  SER274      0.2130
     46  OG        10.9700   17.8810   65.6030 O.3   274  SER274     -0.2179
     47  N         13.2450   18.1110   62.5730 N.am  275  GLY275     -0.1939
     48  CA        14.4880   18.8480   62.4100 C.3   275  GLY275      0.2014
     49  C         14.0650   20.2440   61.9920 C.2   275  GLY275      0.2639
     50  O         13.3400   20.9250   62.7200 O.2   275  GLY275     -0.2714
     51  N         14.5390   20.6760   60.8280 N.am  276  TRP276     -0.1959
     52  CA        14.1630   21.9670   60.2710 C.3   276  TRP276      0.1771
     53  C         14.0990   21.8100   58.7610 C.2   276  TRP276      0.2620
     54  O         14.6690   20.8730   58.1980 O.2   276  TRP276     -0.2715
     55  CB        15.1160   23.0980   60.6790 C.3   276  TRP276      0.0590
     56  CG        16.5710   22.8280   60.4690 C.ar  276  TRP276      0.0006
     57  CD1       17.2820   22.9590   59.3020 C.ar  276  TRP276      0.0946
     58  CD2       17.5100   22.4260   61.4700 C.ar  276  TRP276      0.0152
     59  NE1       18.6090   22.6660   59.5260 N.ar  276  TRP276     -0.2442
     60  CE2       18.7750   22.3370   60.8460 C.ar  276  TRP276      0.0810
     61  CE3       17.4040   22.1310   62.8400 C.ar  276  TRP276      0.0012
     62  CZ2       19.9280   21.9660   61.5450 C.ar  276  TRP276      0.0191
     63  CZ3       18.5520   21.7630   63.5370 C.ar  276  TRP276      0.0001
     64  CH2       19.7980   21.6850   62.8850 C.ar  276  TRP276      0.0015
     65  N         13.4050   22.7310   58.1080 N.am  277  TYR277     -0.1960
     66  CA        13.2310   22.6680   56.6610 C.3   277  TYR277      0.1771
     67  C         14.3860   23.0290   55.7470 C.2   277  TYR277      0.2619
     68  O         15.2040   23.8970   56.0600 O.2   277  TYR277     -0.2715
     69  CB        12.0640   23.5640   56.2470 C.3   277  TYR277      0.0574
     70  CG        10.7250   22.8800   56.2290 C.ar  277  TYR277     -0.0198
     71  CD1       10.4390   21.9030   55.2800 C.ar  277  TYR277     -0.0009
     72  CD2        9.7290   23.2380   57.1330 C.ar  277  TYR277     -0.0009
     73  CE1        9.1840   21.3040   55.2270 C.ar  277  TYR277      0.0417
     74  CE2        8.4720   22.6430   57.0850 C.ar  277  TYR277      0.0417
     75  CZ         8.2090   21.6820   56.1320 C.ar  277  TYR277      0.1957
     76  OH         6.9770   21.0800   56.0790 O.3   277  TYR277     -0.2866
     77  N         14.4660   22.3130   54.6280 N.am  278  MET278     -0.1977
     78  CA        15.4110   22.6690   53.5740 C.3   278  MET278      0.1605
     79  C         14.4030   23.3980   52.6820 C.2   278  MET278      0.2287
     80  O         13.3340   22.8570   52.3860 O.2   278  MET278     -0.2864
     81  CB        15.9860   21.4660   52.8300 C.3   278  MET278      0.0413
     82  CG        16.8100   21.9000   51.6110 C.3   278  MET278      0.0598
     83  SD        17.7590   20.5980   50.8560 S.3   278  MET278     -0.1393
     84  CE        16.4710   19.6830   50.0230 C.3   278  MET278      0.0692
     85  N         11.8730   21.9940   49.7890 N.3   281  GLU281     -0.1245
     86  CA        10.7130   21.1760   50.1250 C.3   281  GLU281      0.1567
     87  C          9.4540   22.0280   50.1660 C.2   281  GLU281      0.2260
     88  O          8.3950   21.6020   49.7130 O.2   281  GLU281     -0.2867
     89  CB        10.9130   20.4450   51.4560 C.3   281  GLU281      0.0388
     90  CG        11.7320   19.1780   51.3220 C.3   281  GLU281      0.1160
     91  CD        11.0840   18.1680   50.3870 C.2   281  GLU281      0.3649
     92  OE1       10.1020   17.5120   50.7970 O.co2 281  GLU281     -0.2457
     93  OE2       11.5530   18.0370   49.2390 O.co2 281  GLU281     -0.2457
@<TRIPOS>BOND
     1    93    91   ar
     2    88    87    2
     3    85    86    1
     4    84    83    1
     5    86    87    1
     6    86    89    1
     7    91    92   ar
     8    91    90    1
     9    83    82    1
    10    90    89    1
    11    82    81    1
    12    80    79    2
    13    79    78    1
    14    81    78    1
    15    78    77    1
    16     1     2    1
    17     3     4    2
    18     3     2    1
    19     2     5    1
    20    77    67   am
    21    73    71   ar
    22    73    75   ar
    23    71    70   ar
    24    67    68    2
    25    67    66    1
    26     5     6    1
    27    76    75    1
    28    75    74   ar
    29    70    69    1
    30    70    72   ar
    31    69    66    1
    32    15    13   am
    33    66    65    1
    34    74    72   ar
    35    13    14    2
    36    13    12    1
    37    65    53   am
    38    12    11    1
    39    54    53    2
    40    29    27    1
    41    20    21    1
    42    20    17    1
    43    53    52    1
    44    28    27    1
    45    11     8    1
    46    57    59   ar
    47    57    56   ar
    48    21    22    1
    49     7     8    1
    50    59    60   ar
    51    27    24    1
    52    17    16    1
    53    17    18    1
    54     8     9    1
    55    22    16    1
    56    52    55    1
    57    52    51    1
    58    40    38   ar
    59    40    39   ar
    60    24    23    1
    61    24    25    1
    62    56    55    1
    63    56    58   ar
    64    38    36   ar
    65    18    19    2
    66    51    49   am
    67    60    58   ar
    68    60    62   ar
    69    10     9    2
    70    39    37   ar
    71    58    61   ar
    72    62    64   ar
    73    25    26    2
    74    36    35   ar
    75    49    48    1
    76    49    50    2
    77    48    47    1
    78    47    43   am
    79    37    35   ar
    80    61    63   ar
    81    64    63   ar
    82    35    34    1
    83    33    32    2
    84    43    42    1
    85    43    44    2
    86    42    45    1
    87    42    41    1
    88    32    41   am
    89    32    31    1
    90    45    46    1
    91    34    31    1
    92    30    31    1
