@<TRIPOS>MOLECULE
tmp/1m9qA03.pdb
 79 76 0 0 0
SMALL
GASTEIGER

@<TRIPOS>ATOM
      1  N         18.8330    7.8770   62.5370 N.3    98  TRP98      -0.1241
      2  CA        18.9190    9.0950   61.7390 C.3    98  TRP98       0.1605
      3  C         20.1750    9.0080   60.8750 C.2    98  TRP98       0.2264
      4  O         20.1310    9.2510   59.6690 O.2    98  TRP98      -0.2867
      5  CB        18.9660   10.3240   62.6510 C.3    98  TRP98       0.0550
      6  CG        19.0310   11.6480   61.9320 C.ar   98  TRP98       0.0003
      7  CD1       18.9170   11.8660   60.5840 C.ar   98  TRP98       0.0946
      8  CD2       19.2620   12.9300   62.5250 C.ar   98  TRP98       0.0152
      9  NE1       19.0720   13.2010   60.3060 N.ar   98  TRP98      -0.2442
     10  CE2       19.2850   13.8780   61.4800 C.ar   98  TRP98       0.0810
     11  CE3       19.4520   13.3710   63.8450 C.ar   98  TRP98       0.0012
     12  CZ2       19.4920   15.2480   61.7100 C.ar   98  TRP98       0.0191
     13  CZ3       19.6580   14.7390   64.0740 C.ar   98  TRP98       0.0001
     14  CH2       19.6750   15.6550   63.0080 C.ar   98  TRP98       0.0015
     15  N         19.3710   14.2970   53.7020 N.3   105  VAL105     -0.1231
     16  CA        20.4990   15.1530   53.3320 C.3   105  VAL105      0.1692
     17  C         21.0370   15.9470   54.5360 C.2   105  VAL105      0.2592
     18  O         22.1440   16.4820   54.4890 O.2   105  VAL105     -0.2718
     19  CB        20.0900   16.1520   52.2010 C.3   105  VAL105      0.0266
     20  CG1       19.0810   17.1810   52.7340 C.3   105  VAL105      0.0020
     21  CG2       21.3230   16.8600   51.6100 C.3   105  VAL105      0.0020
     22  N         20.2590   16.0100   55.6140 N.am  106  GLY106     -0.1957
     23  CA        20.6880   16.7650   56.7810 C.3   106  GLY106      0.1869
     24  C         21.4140   15.9610   57.8400 C.2   106  GLY106      0.2309
     25  O         21.5220   16.4090   58.9810 O.2   106  GLY106     -0.2863
     26  N         24.5070   15.5540   58.6580 N.3   108  ILE108     -0.1231
     27  CA        25.7270   16.0450   59.2950 C.3   108  ILE108      0.1692
     28  C         25.4130   16.3740   60.7610 C.2   108  ILE108      0.2591
     29  O         26.2960   16.3800   61.6140 O.2   108  ILE108     -0.2718
     30  CB        26.3020   17.2900   58.5780 C.3   108  ILE108      0.0266
     31  CG1       27.7590   17.4980   59.0030 C.3   108  ILE108      0.0019
     32  CG2       25.4760   18.5370   58.9070 C.3   108  ILE108      0.0020
     33  CD1       28.4940   18.4990   58.1740 C.3   108  ILE108      0.0001
     34  N         24.1280   16.5860   61.0400 N.am  109  GLN109     -0.1979
     35  CA        23.6300   16.9010   62.3750 C.3   109  GLN109      0.1601
     36  C         23.2410   15.6650   63.1950 C.2   109  GLN109      0.2287
     37  O         22.7670   15.8100   64.3180 O.2   109  GLN109     -0.2864
     38  CB        22.3780   17.7830   62.2450 C.3   109  GLN109      0.0394
     39  CG        22.6310   19.2130   61.8260 C.3   109  GLN109      0.0908
     40  CD        23.2110   20.0460   62.9490 C.2   109  GLN109      0.2608
     41  OE1       22.8240   19.9010   64.1110 O.2   109  GLN109     -0.2717
     42  NE2       24.1420   20.9270   62.6090 N.am  109  GLN109     -0.0878
     43  N         14.6590   20.7150   60.8660 N.3   276  TRP276     -0.1241
     44  CA        14.2510   21.9970   60.3100 C.3   276  TRP276      0.1605
     45  C         14.1590   21.8380   58.8050 C.2   276  TRP276      0.2264
     46  O         14.6810   20.8750   58.2390 O.2   276  TRP276     -0.2867
     47  CB        15.1920   23.1460   60.7060 C.3   276  TRP276      0.0550
     48  CG        16.6490   22.8900   60.4900 C.ar  276  TRP276      0.0003
     49  CD1       17.3500   23.0440   59.3280 C.ar  276  TRP276      0.0946
     50  CD2       17.5970   22.4860   61.4840 C.ar  276  TRP276      0.0152
     51  NE1       18.6790   22.7640   59.5390 N.ar  276  TRP276     -0.2442
     52  CE2       18.8580   22.4200   60.8530 C.ar  276  TRP276      0.0810
     53  CE3       17.5030   22.1770   62.8490 C.ar  276  TRP276      0.0012
     54  CZ2       20.0210   22.0580   61.5400 C.ar  276  TRP276      0.0191
     55  CZ3       18.6570   21.8150   63.5350 C.ar  276  TRP276      0.0001
     56  CH2       19.9010   21.7600   62.8760 C.ar  276  TRP276      0.0015
     57  N         17.3880   26.1050   55.7900 N.3   338  VAL338     -0.1245
     58  CA        18.6350   25.9400   55.0530 C.3   338  VAL338      0.1561
     59  C         18.3610   25.7690   53.5640 C.2   338  VAL338      0.2260
     60  O         17.4260   25.0620   53.1760 O.2   338  VAL338     -0.2867
     61  CB        19.4890   24.7600   55.6100 C.3   338  VAL338      0.0252
     62  CG1       18.7450   23.4350   55.4930 C.3   338  VAL338      0.0019
     63  CG2       20.8330   24.6970   54.8900 C.3   338  VAL338      0.0019
     64  N         23.6040   25.1140   50.6010 N.3   342  ALA342     -0.1231
     65  CA        24.2250   24.9450   51.9150 C.3   342  ALA342      0.1694
     66  C         24.0230   23.5420   52.4830 C.2   342  ALA342      0.2591
     67  O         24.9220   22.9830   53.1210 O.2   342  ALA342     -0.2718
     68  CB        23.6880   25.9960   52.8930 C.3   342  ALA342      0.0304
     69  N         22.8410   22.9740   52.2510 N.am  343  ALA343     -0.1980
     70  CA        22.5240   21.6340   52.7380 C.3   343  ALA343      0.1597
     71  C         23.3300   20.5450   52.0290 C.2   343  ALA343      0.2287
     72  O         23.8310   19.6210   52.6730 O.2   343  ALA343     -0.2864
     73  CB        21.0190   21.3550   52.5950 C.3   343  ALA343      0.0319
     74  N         26.9590   20.6080   53.0380 N.3   346  SER346     -0.1217
     75  CA        27.1460   19.9650   54.3360 C.3   346  SER346      0.1889
     76  C         27.0620   18.4430   54.2220 C.2   346  SER346      0.2288
     77  O         27.7120   17.7300   54.9880 O.2   346  SER346     -0.2866
     78  CB        26.1380   20.4890   55.3700 C.3   346  SER346      0.2089
     79  OG        24.8540   19.9170   55.1860 O.3   346  SER346     -0.2183
@<TRIPOS>BOND
     1    64    65    1
     2    21    19    1
     3    65    66    1
     4    65    68    1
     5    71    72    2
     6    71    70    1
     7    19    20    1
     8    19    16    1
     9    69    66   am
    10    69    70    1
    11    66    67    2
    12    73    70    1
    13    74    75    1
    14    60    59    2
    15    16    15    1
    16    16    17    1
    17    59    58    1
    18    76    75    1
    19    76    77    2
    20    75    78    1
    21    18    17    2
    22    17    22   am
    23    63    61    1
    24    58    61    1
    25    58    57    1
    26    79    78    1
    27    62    61    1
    28    22    23    1
    29    23    24    1
    30    24    25    2
    31    33    31    1
    32    46    45    2
    33    30    32    1
    34    30    31    1
    35    30    27    1
    36    26    27    1
    37    45    44    1
    38    27    28    1
    39    49    51   ar
    40    49    48   ar
    41    51    52   ar
    42     4     3    2
    43     9     7   ar
    44     9    10   ar
    45    44    47    1
    46    44    43    1
    47    48    47    1
    48    48    50   ar
    49     7     6   ar
    50    28    34   am
    51    28    29    2
    52    52    50   ar
    53    52    54   ar
    54     3     2    1
    55    34    35    1
    56    10    12   ar
    57    10     8   ar
    58    50    53   ar
    59    54    56   ar
    60    12    14   ar
    61     2     1    1
    62     2     5    1
    63    39    38    1
    64    39    40    1
    65     6     8   ar
    66     6     5    1
    67    38    35    1
    68    35    36    1
    69     8    11   ar
    70    42    40   am
    71    53    55   ar
    72    56    55   ar
    73    40    41    2
    74    14    13   ar
    75    36    37    2
    76    11    13   ar
