@<TRIPOS>MOLECULE
tmp/1m9qA01.pdb
 93 92 0 0 0
SMALL
GASTEIGER

@<TRIPOS>ATOM
      1  N         18.0480   11.0790   53.8150 N.3   104  CYS104     -0.1235
      2  CA        18.2360   12.3240   54.5520 C.3   104  CYS104      0.1677
      3  C         19.5260   13.0770   54.2130 C.2   104  CYS104      0.2270
      4  O         20.6300   12.5710   54.4320 O.2   104  CYS104     -0.2867
      5  CB        18.1700   12.0560   56.0580 C.3   104  CYS104      0.0956
      6  SG        18.1970   13.5560   57.0390 S.3   104  CYS104     -0.0801
      7  N          2.5550   14.0420   59.6620 N.3   167  GLN167     -0.1245
      8  CA         3.4630   14.9960   60.3310 C.3   167  GLN167      0.1566
      9  C          2.6580   15.5950   61.4720 C.2   167  GLN167      0.2260
     10  O          1.4270   15.5610   61.4420 O.2   167  GLN167     -0.2867
     11  CB         3.9300   16.1290   59.4160 C.3   167  GLN167      0.0367
     12  CG         4.9510   15.7370   58.3690 C.3   167  GLN167      0.0905
     13  CD         5.3830   16.9160   57.5130 C.2   167  GLN167      0.2608
     14  OE1        5.2350   18.0740   57.9050 O.2   167  GLN167     -0.2717
     15  NE2        5.9110   16.6240   56.3310 N.am  167  GLN167     -0.0878
     16  N          9.0220   20.7770   60.6630 N.3   254  PRO254     -0.2116
     17  CA         8.7620   19.5840   59.8550 C.3   254  PRO254      0.1372
     18  C          8.9470   18.4010   60.8050 C.2   254  PRO254      0.2244
     19  O         10.0700   18.0730   61.1930 O.2   254  PRO254     -0.2868
     20  CB         9.8520   19.6540   58.7900 C.3   254  PRO254      0.0268
     21  CG        10.9980   20.2720   59.5190 C.3   254  PRO254      0.0207
     22  CD        10.3690   21.3230   60.3980 C.3   254  PRO254      0.0892
     23  N          7.9570   14.5170   61.1290 N.3   256  VAL256     -0.1245
     24  CA         7.4280   13.2530   60.6130 C.3   256  VAL256      0.1561
     25  C          6.9400   12.3870   61.7710 C.2   256  VAL256      0.2260
     26  O          7.6960   12.1150   62.7110 O.2   256  VAL256     -0.2867
     27  CB         8.5030   12.5010   59.8020 C.3   256  VAL256      0.0252
     28  CG1        7.9740   11.1560   59.3280 C.3   256  VAL256      0.0019
     29  CG2        8.9420   13.3450   58.6120 C.3   256  VAL256      0.0019
     30  N          9.6930   12.5140   64.9340 N.3   273  PHE273     -0.1227
     31  CA        10.9660   13.2170   64.9740 C.3   273  PHE273      0.1736
     32  C         10.8900   14.5000   64.1640 C.2   273  PHE273      0.2596
     33  O         10.0310   14.6410   63.2940 O.2   273  PHE273     -0.2718
     34  CB        12.0940   12.3180   64.4540 C.3   273  PHE273      0.0547
     35  CG        11.8730   11.8020   63.0590 C.ar  273  PHE273     -0.0202
     36  CD1       12.2470   12.5600   61.9570 C.ar  273  PHE273     -0.0042
     37  CD2       11.3170   10.5390   62.8490 C.ar  273  PHE273     -0.0042
     38  CE1       12.0780   12.0710   60.6620 C.ar  273  PHE273     -0.0003
     39  CE2       11.1410   10.0380   61.5590 C.ar  273  PHE273     -0.0003
     40  CZ        11.5230   10.8040   60.4640 C.ar  273  PHE273     -0.0000
     41  N         11.8090   15.4230   64.4310 N.am  274  SER274     -0.1938
     42  CA        11.8260   16.6840   63.7160 C.3   274  SER274      0.2055
     43  C         13.2000   17.3310   63.6600 C.2   274  SER274      0.2644
     44  O         14.0600   17.0770   64.5040 O.2   274  SER274     -0.2714
     45  CB        10.8200   17.6630   64.3400 C.3   274  SER274      0.2130
     46  OG        11.1130   17.9360   65.6980 O.3   274  SER274     -0.2179
     47  N         13.3890   18.1540   62.6350 N.am  275  GLY275     -0.1939
     48  CA        14.6290   18.8890   62.4510 C.3   275  GLY275      0.2014
     49  C         14.1830   20.2680   62.0200 C.2   275  GLY275      0.2639
     50  O         13.4380   20.9310   62.7380 O.2   275  GLY275     -0.2714
     51  N         14.6590   20.7150   60.8660 N.am  276  TRP276     -0.1959
     52  CA        14.2510   21.9970   60.3100 C.3   276  TRP276      0.1771
     53  C         14.1590   21.8380   58.8050 C.2   276  TRP276      0.2620
     54  O         14.6810   20.8750   58.2390 O.2   276  TRP276     -0.2715
     55  CB        15.1920   23.1460   60.7060 C.3   276  TRP276      0.0590
     56  CG        16.6490   22.8900   60.4900 C.ar  276  TRP276      0.0006
     57  CD1       17.3500   23.0440   59.3280 C.ar  276  TRP276      0.0946
     58  CD2       17.5970   22.4860   61.4840 C.ar  276  TRP276      0.0152
     59  NE1       18.6790   22.7640   59.5390 N.ar  276  TRP276     -0.2442
     60  CE2       18.8580   22.4200   60.8530 C.ar  276  TRP276      0.0810
     61  CE3       17.5030   22.1770   62.8490 C.ar  276  TRP276      0.0012
     62  CZ2       20.0210   22.0580   61.5400 C.ar  276  TRP276      0.0191
     63  CZ3       18.6570   21.8150   63.5350 C.ar  276  TRP276      0.0001
     64  CH2       19.9010   21.7600   62.8760 C.ar  276  TRP276      0.0015
     65  N         13.4820   22.7760   58.1590 N.am  277  TYR277     -0.1960
     66  CA        13.2970   22.7110   56.7150 C.3   277  TYR277      0.1771
     67  C         14.4530   23.0780   55.8070 C.2   277  TYR277      0.2619
     68  O         15.2730   23.9490   56.1280 O.2   277  TYR277     -0.2715
     69  CB        12.1210   23.5960   56.3000 C.3   277  TYR277      0.0574
     70  CG        10.7810   22.9130   56.3010 C.ar  277  TYR277     -0.0198
     71  CD1       10.4990   21.8920   55.3960 C.ar  277  TYR277     -0.0009
     72  CD2        9.7750   23.3180   57.1720 C.ar  277  TYR277     -0.0009
     73  CE1        9.2410   21.2990   55.3580 C.ar  277  TYR277      0.0417
     74  CE2        8.5250   22.7360   57.1400 C.ar  277  TYR277      0.0417
     75  CZ         8.2610   21.7300   56.2340 C.ar  277  TYR277      0.1957
     76  OH         7.0160   21.1600   56.2060 O.3   277  TYR277     -0.2866
     77  N         14.5510   22.3420   54.7020 N.am  278  MET278     -0.1977
     78  CA        15.4950   22.6900   53.6500 C.3   278  MET278      0.1605
     79  C         14.4910   23.4010   52.7390 C.2   278  MET278      0.2287
     80  O         13.4190   22.8590   52.4410 O.2   278  MET278     -0.2864
     81  CB        16.0850   21.4820   52.9330 C.3   278  MET278      0.0413
     82  CG        16.9370   21.9190   51.7360 C.3   278  MET278      0.0598
     83  SD        17.9160   20.6140   51.0360 S.3   278  MET278     -0.1393
     84  CE        16.6710   19.7120   50.0990 C.3   278  MET278      0.0692
     85  N         11.9230   21.9590   49.8480 N.3   281  GLU281     -0.1245
     86  CA        10.7570   21.1500   50.1770 C.3   281  GLU281      0.1567
     87  C          9.4930   21.9970   50.2450 C.2   281  GLU281      0.2260
     88  O          8.4210   21.5430   49.8590 O.2   281  GLU281     -0.2867
     89  CB        10.9620   20.3810   51.4770 C.3   281  GLU281      0.0388
     90  CG        11.8660   19.1800   51.3150 C.3   281  GLU281      0.1160
     91  CD        11.2130   18.0510   50.5290 C.2   281  GLU281      0.3649
     92  OE1       11.7510   17.6610   49.4730 O.co2 281  GLU281     -0.2457
     93  OE2       10.1700   17.5340   50.9780 O.co2 281  GLU281     -0.2457
@<TRIPOS>BOND
     1    92    91   ar
     2    85    86    1
     3    88    87    2
     4    84    83    1
     5    86    87    1
     6    86    89    1
     7    91    93   ar
     8    91    90    1
     9    83    82    1
    10    90    89    1
    11    82    81    1
    12    80    79    2
    13    79    78    1
    14    81    78    1
    15    78    77    1
    16     1     2    1
    17     3     4    2
    18     3     2    1
    19     2     5    1
    20    77    67   am
    21    73    71   ar
    22    73    75   ar
    23    71    70   ar
    24    67    68    2
    25    67    66    1
    26     5     6    1
    27    76    75    1
    28    75    74   ar
    29    69    70    1
    30    69    66    1
    31    70    72   ar
    32    15    13   am
    33    66    65    1
    34    74    72   ar
    35    13    14    2
    36    13    12    1
    37    65    53   am
    38    54    53    2
    39    12    11    1
    40    29    27    1
    41    20    21    1
    42    20    17    1
    43    53    52    1
    44    28    27    1
    45    57    59   ar
    46    57    56   ar
    47    11     8    1
    48    21    22    1
    49    59    60   ar
    50     7     8    1
    51    27    24    1
    52    17    16    1
    53    17    18    1
    54    52    55    1
    55    52    51    1
    56     8     9    1
    57    22    16    1
    58    40    38   ar
    59    40    39   ar
    60    56    55    1
    61    56    58   ar
    62    24    23    1
    63    24    25    1
    64    38    36   ar
    65    18    19    2
    66    60    58   ar
    67    60    62   ar
    68    51    49   am
    69    10     9    2
    70    58    61   ar
    71    62    64   ar
    72    39    37   ar
    73    25    26    2
    74    36    35   ar
    75    49    48    1
    76    49    50    2
    77    48    47    1
    78    47    43   am
    79    37    35   ar
    80    61    63   ar
    81    64    63   ar
    82    35    34    1
    83    33    32    2
    84    43    42    1
    85    43    44    2
    86    42    45    1
    87    42    41    1
    88    32    41   am
    89    32    31    1
    90    45    46    1
    91    34    31    1
    92    30    31    1
