@<TRIPOS>MOLECULE
tmp/1m9tB03.pdb
 95 94 0 0 0
SMALL
GASTEIGER

@<TRIPOS>ATOM
      1  N        134.1620  112.5740   96.0690 N.3   109  CYS109     -0.1235
      2  CA       132.8730  113.1600   96.4340 C.3   109  CYS109      0.1677
      3  C        132.8860  113.9900   97.7320 C.2   109  CYS109      0.2270
      4  O        133.2310  113.4850   98.8020 O.2   109  CYS109     -0.2867
      5  CB       131.8050  112.0590   96.5190 C.3   109  CYS109      0.0956
      6  SG       130.1410  112.6230   96.9690 S.3   109  CYS109     -0.0801
      7  N        126.1550  111.7880   81.7890 N.3   172  GLN172     -0.1245
      8  CA       125.1820  112.0690   82.8500 C.3   172  GLN172      0.1566
      9  C        123.7810  111.8380   82.2800 C.2   172  GLN172      0.2260
     10  O        123.5850  111.8990   81.0650 O.2   172  GLN172     -0.2867
     11  CB       125.2810  113.5200   83.3590 C.3   172  GLN172      0.0367
     12  CG       126.6160  113.9150   83.9900 C.3   172  GLN172      0.0905
     13  CD       126.5800  115.3030   84.6350 C.2   172  GLN172      0.2608
     14  OE1      126.0180  116.2580   84.0830 O.2   172  GLN172     -0.2717
     15  NE2      127.1870  115.4180   85.8170 N.am  172  GLN172     -0.0878
     16  N        121.9350  116.3570   88.8990 N.3   259  PRO259     -0.2116
     17  CA       123.2850  115.8880   88.5690 C.3   259  PRO259      0.1372
     18  C        123.2500  114.3660   88.7420 C.2   259  PRO259      0.2244
     19  O        123.1090  113.8440   89.8590 O.2   259  PRO259     -0.2868
     20  CB       124.1520  116.6000   89.6230 C.3   259  PRO259      0.0268
     21  CG       123.2710  116.6580   90.8120 C.3   259  PRO259      0.0207
     22  CD       121.8870  116.9490   90.2540 C.3   259  PRO259      0.0892
     23  N        125.2660  110.9180   87.5550 N.3   261  VAL261     -0.1245
     24  CA       126.3430  110.2150   86.8620 C.3   261  VAL261      0.1561
     25  C        125.7560  108.9540   86.2430 C.2   261  VAL261      0.2260
     26  O        125.0880  108.1670   86.9210 O.2   261  VAL261     -0.2867
     27  CB       127.5090  109.8800   87.8100 C.3   261  VAL261      0.0252
     28  CG1      128.5490  109.0140   87.0840 C.3   261  VAL261      0.0019
     29  CG2      128.1510  111.1780   88.3100 C.3   261  VAL261      0.0019
     30  N        123.5150  107.0820   89.0860 N.3   278  PHE278     -0.1227
     31  CA       123.2080  107.6190   90.4090 C.3   278  PHE278      0.1736
     32  C        123.2390  109.1530   90.4440 C.2   278  PHE278      0.2595
     33  O        123.9120  109.8190   89.6270 O.2   278  PHE278     -0.2718
     34  CB       124.1710  107.0390   91.4690 C.3   278  PHE278      0.0547
     35  CG       125.6310  107.2860   91.1740 C.ar  278  PHE278     -0.0202
     36  CD1      126.1980  108.5400   91.3740 C.ar  278  PHE278     -0.0042
     37  CD2      126.4350  106.2650   90.6890 C.ar  278  PHE278     -0.0042
     38  CE1      127.5440  108.7660   91.0940 C.ar  278  PHE278     -0.0003
     39  CE2      127.7870  106.4830   90.4060 C.ar  278  PHE278     -0.0003
     40  CZ       128.3410  107.7320   90.6080 C.ar  278  PHE278     -0.0000
     41  N        122.5520  109.7100   91.4270 N.am  279  ASN279     -0.1960
     42  CA       122.5240  111.1540   91.5660 C.3   279  ASN279      0.1819
     43  C        122.4340  111.5910   93.0230 C.2   279  ASN279      0.2622
     44  O        122.0260  110.8320   93.9090 O.2   279  ASN279     -0.2715
     45  CB       121.2970  111.7100   90.8460 C.3   279  ASN279      0.1195
     46  CG       120.0370  111.4550   91.6150 C.2   279  ASN279      0.2630
     47  OD1      119.5050  110.3550   91.5800 O.2   279  ASN279     -0.2716
     48  ND2      119.6040  112.4360   92.4020 N.am  279  ASN279     -0.0877
     49  N        122.7570  112.8600   93.2230 N.am  280  GLY280     -0.1940
     50  CA       122.6510  113.5000   94.5210 C.3   280  GLY280      0.2014
     51  C        122.1530  114.8860   94.1180 C.2   280  GLY280      0.2639
     52  O        121.4000  115.0090   93.1300 O.2   280  GLY280     -0.2714
     53  N        122.5360  115.9290   94.8530 N.am  281  TRP281     -0.1959
     54  CA       122.1340  117.2670   94.4570 C.3   281  TRP281      0.1771
     55  C        123.3530  118.1030   94.0710 C.2   281  TRP281      0.2620
     56  O        124.4930  117.6980   94.3030 O.2   281  TRP281     -0.2715
     57  CB       121.2510  117.9440   95.5070 C.3   281  TRP281      0.0590
     58  CG       121.7730  117.9220   96.8960 C.ar  281  TRP281      0.0006
     59  CD1      122.7080  118.7570   97.4320 C.ar  281  TRP281      0.0946
     60  CD2      121.3400  117.0660   97.9580 C.ar  281  TRP281      0.0152
     61  NE1      122.8790  118.4810   98.7650 N.ar  281  TRP281     -0.2442
     62  CE2      122.0530  117.4460   99.1160 C.ar  281  TRP281      0.0810
     63  CE3      120.4200  116.0120   98.0420 C.ar  281  TRP281      0.0012
     64  CZ2      121.8760  116.8150  100.3530 C.ar  281  TRP281      0.0191
     65  CZ3      120.2390  115.3800   99.2750 C.ar  281  TRP281      0.0001
     66  CH2      120.9690  115.7870  100.4180 C.ar  281  TRP281      0.0015
     67  N        123.1050  119.2340   93.4240 N.am  282  TYR282     -0.1960
     68  CA       124.1570  120.1280   92.9650 C.3   282  TYR282      0.1771
     69  C        124.8570  120.9910   94.0250 C.2   282  TYR282      0.2619
     70  O        124.2950  121.3010   95.0710 O.2   282  TYR282     -0.2715
     71  CB       123.5900  121.0660   91.8990 C.3   282  TYR282      0.0574
     72  CG       123.9200  120.6770   90.4860 C.ar  282  TYR282     -0.0198
     73  CD1      125.2410  120.6370   90.0480 C.ar  282  TYR282     -0.0009
     74  CD2      122.9100  120.3330   89.5810 C.ar  282  TYR282     -0.0009
     75  CE1      125.5530  120.2640   88.7420 C.ar  282  TYR282      0.0417
     76  CE2      123.2140  119.9560   88.2740 C.ar  282  TYR282      0.0417
     77  CZ       124.5300  119.9230   87.8640 C.ar  282  TYR282      0.1957
     78  OH       124.8260  119.5210   86.5870 O.3   282  TYR282     -0.2866
     79  N        126.1110  121.3320   93.7430 N.am  283  MET283     -0.1977
     80  CA       126.8910  122.2240   94.5800 C.3   283  MET283      0.1605
     81  C        127.0800  123.3820   93.6140 C.2   283  MET283      0.2287
     82  O        127.5950  123.1980   92.4980 O.2   283  MET283     -0.2864
     83  CB       128.2510  121.6350   94.9880 C.3   283  MET283      0.0413
     84  CG       129.0580  122.5960   95.9040 C.3   283  MET283      0.0598
     85  SD       130.5980  121.9480   96.6410 S.3   283  MET283     -0.1393
     86  CE       131.7250  122.0670   95.2260 C.3   283  MET283      0.0692
     87  N        129.7040  124.0900   90.7740 N.3   286  GLU286     -0.1245
     88  CA       129.7410  123.1910   89.6220 C.3   286  GLU286      0.1567
     89  C        129.0830  123.8590   88.4010 C.2   286  GLU286      0.2260
     90  O        129.6400  123.8730   87.2980 O.2   286  GLU286     -0.2867
     91  CB       129.0440  121.8750   89.9660 C.3   286  GLU286      0.0388
     92  CG       129.1790  120.8030   88.9010 C.3   286  GLU286      0.1160
     93  CD       130.6310  120.4850   88.5500 C.2   286  GLU286      0.3649
     94  OE1      131.4480  120.2270   89.4750 O.co2 286  GLU286     -0.2457
     95  OE2      130.9440  120.4980   87.3400 O.co2 286  GLU286     -0.2457
@<TRIPOS>BOND
     1    10     9    2
     2     7     8    1
     3     9     8    1
     4     8    11    1
     5    11    12    1
     6    12    13    1
     7    14    13    2
     8    13    15   am
     9    25    24    1
    10    25    26    2
    11    78    77    1
    12    24    23    1
    13    24    27    1
    14    28    27    1
    15    90    89    2
    16    95    93   ar
    17    27    29    1
    18    77    76   ar
    19    77    75   ar
    20    76    74   ar
    21    89    88    1
    22    93    92    1
    23    93    94   ar
    24    17    18    1
    25    17    16    1
    26    17    20    1
    27    75    73   ar
    28    18    19    2
    29    16    22    1
    30    92    91    1
    31    30    31    1
    32    74    72   ar
    33    88    91    1
    34    88    87    1
    35    20    21    1
    36    33    32    2
    37    73    72   ar
    38    22    21    1
    39    39    40   ar
    40    39    37   ar
    41    31    32    1
    42    31    34    1
    43    32    41   am
    44    72    71    1
    45    40    38   ar
    46    37    35   ar
    47    45    42    1
    48    45    46    1
    49    38    36   ar
    50    35    36   ar
    51    35    34    1
    52    41    42    1
    53    42    43    1
    54    47    46    2
    55    46    48   am
    56    71    68    1
    57    82    81    2
    58    68    67    1
    59    68    69    1
    60    43    49   am
    61    43    44    2
    62    52    51    2
    63    49    50    1
    64    67    55   am
    65    81    80    1
    66    79    69   am
    67    79    80    1
    68    69    70    2
    69    55    56    2
    70    55    54    1
    71    51    50    1
    72    51    53   am
    73    54    53    1
    74    54    57    1
    75    80    83    1
    76    83    84    1
    77    86    85    1
    78    57    58    1
    79    84    85    1
    80     1     2    1
    81     2     5    1
    82     2     3    1
    83     5     6    1
    84    58    59   ar
    85    58    60   ar
    86    59    61   ar
    87     3     4    2
    88    60    63   ar
    89    60    62   ar
    90    63    65   ar
    91    61    62   ar
    92    62    64   ar
    93    65    66   ar
    94    64    66   ar
