@<TRIPOS>MOLECULE
tmp/1ma3A00.pdb
 178 176 0 0 0
SMALL
GASTEIGER

@<TRIPOS>ATOM
      1  N         10.1140    4.4170   83.2220 N.3    37  PRO37      -0.2102
      2  CA        10.1820    5.7860   82.7020 C.3    37  PRO37       0.1504
      3  C          8.9870    6.6990   83.0010 C.2    37  PRO37       0.2575
      4  O          9.1600    7.9150   83.1270 O.2    37  PRO37      -0.2718
      5  CB        10.4550    5.5830   81.2050 C.3    37  PRO37       0.0282
      6  CG        10.0270    4.1690   80.9350 C.3    37  PRO37       0.0208
      7  CD        10.4150    3.4280   82.1740 C.3    37  PRO37       0.0893
      8  N          7.7870    6.1360   83.1330 N.am   38  GLU38      -0.1980
      9  CA         6.6120    6.9560   83.4370 C.3    38  GLU38       0.1602
     10  C          6.6730    7.5060   84.8570 C.2    38  GLU38       0.2287
     11  O          5.8720    8.3690   85.2330 O.2    38  GLU38      -0.2864
     12  CB         5.3120    6.1630   83.2930 C.3    38  GLU38       0.0415
     13  CG         4.9020    5.8170   81.8780 C.3    38  GLU38       0.1163
     14  CD         3.5120    5.2050   81.8360 C.2    38  GLU38       0.3649
     15  OE1        2.5260    5.9680   81.8290 O.co2  38  GLU38      -0.2457
     16  OE2        3.4030    3.9600   81.8320 O.co2  38  GLU38      -0.2457
     17  N         10.4480   12.1690   68.3000 N.3    90  GLN90      -0.1231
     18  CA        10.1170   12.1500   69.7160 C.3    90  GLN90       0.1698
     19  C         11.4440   11.9300   70.4290 C.2    90  GLN90       0.2592
     20  O         11.5080   11.9220   71.6540 O.2    90  GLN90      -0.2718
     21  CB         9.1990   10.9710   70.0500 C.3    90  GLN90       0.0381
     22  CG         8.0530   10.7290   69.0890 C.3    90  GLN90       0.0905
     23  CD         7.3450    9.4080   69.3780 C.2    90  GLN90       0.2608
     24  OE1        6.6260    8.8770   68.5350 O.2    90  GLN90      -0.2717
     25  NE2        7.5540    8.8740   70.5780 N.am   90  GLN90      -0.0878
     26  N         12.5000   11.7390   69.6440 N.am   91  ASN91      -0.1960
     27  CA        13.8210   11.4730   70.1900 C.3    91  ASN91       0.1819
     28  C         14.5690   12.7210   70.6460 C.2    91  ASN91       0.2621
     29  O         14.3750   13.8110   70.1050 O.2    91  ASN91      -0.2715
     30  CB        14.6180   10.6670   69.1710 C.3    91  ASN91       0.1195
     31  CG        13.8620    9.4300   68.7240 C.2    91  ASN91       0.2630
     32  OD1       13.1110    8.8470   69.5050 O.2    91  ASN91      -0.2716
     33  ND2       14.0510    9.0250   67.4730 N.am   91  ASN91      -0.0877
     34  N         15.4270   12.5380   71.6460 N.am   92  ILE92      -0.1977
     35  CA        16.1650   13.6370   72.2610 C.3    92  ILE92       0.1596
     36  C         17.6820   13.5270   72.1840 C.2    92  ILE92       0.2287
     37  O         18.3920   14.2170   72.9150 O.2    92  ILE92      -0.2864
     38  CB        15.7950   13.7370   73.7480 C.3    92  ILE92       0.0276
     39  CG1       16.3480   12.5130   74.4930 C.3    92  ILE92       0.0022
     40  CG2       14.2810   13.7870   73.9050 C.3    92  ILE92       0.0022
     41  CD1       16.1890   12.5630   76.0120 C.3    92  ILE92       0.0001
     42  N         10.0200   16.5900   71.8580 N.3   108  HIS108     -0.1241
     43  CA        10.3290   16.4270   73.2720 C.3   108  HIS108      0.1621
     44  C         11.6390   17.0590   73.7240 C.2   108  HIS108      0.2264
     45  O         12.2020   16.6400   74.7320 O.2   108  HIS108     -0.2867
     46  CB        10.3450   14.9310   73.5980 C.3   108  HIS108      0.0745
     47  CG         9.0530   14.2410   73.2990 C.ar  108  HIS108      0.0817
     48  ND1        8.9790   12.9010   72.9840 N.ar  108  HIS108     -0.2268
     49  CD2        7.7780   14.7000   73.2910 C.ar  108  HIS108      0.1154
     50  CE1        7.7140   12.5650   72.7930 C.ar  108  HIS108      0.1986
     51  NE2        6.9650   13.6390   72.9730 N.ar  108  HIS108     -0.2212
     52  N         14.3770   18.4400   78.1690 N.3   152  VAL152     -0.1231
     53  CA        13.6680   17.3860   77.4710 C.3   152  VAL152      0.1692
     54  C         12.3120   17.3130   78.1610 C.2   152  VAL152      0.2592
     55  O         12.2080   17.5340   79.3730 O.2   152  VAL152     -0.2718
     56  CB        14.3620   16.0110   77.6100 C.3   152  VAL152      0.0266
     57  CG1       15.7660   16.0740   77.0460 C.3   152  VAL152      0.0020
     58  CG2       14.3760   15.5810   79.0670 C.3   152  VAL152      0.0020
     59  N         11.2770   17.0110   77.3880 N.am  153  VAL153     -0.1966
     60  CA         9.9330   16.9060   77.9240 C.3   153  VAL153      0.1727
     61  C          9.7550   15.5970   78.6980 C.2   153  VAL153      0.2616
     62  O          9.8560   14.5110   78.1200 O.2   153  VAL153     -0.2715
     63  CB         8.8920   16.9340   76.7930 C.3   153  VAL153      0.0290
     64  CG1        7.5040   16.7470   77.3650 C.3   153  VAL153      0.0023
     65  CG2        8.9980   18.2420   76.0130 C.3   153  VAL153      0.0023
     66  N          9.4950   15.6980   79.9980 N.am  154  LEU154     -0.1963
     67  CA         9.2640   14.5080   80.8250 C.3   154  LEU154      0.1728
     68  C          7.7750   14.2020   80.8100 C.2   154  LEU154      0.2616
     69  O          6.9680   15.0690   80.4720 O.2   154  LEU154     -0.2715
     70  CB         9.7220   14.7480   82.2740 C.3   154  LEU154      0.0311
     71  CG        11.2260   14.9930   82.4710 C.3   154  LEU154      0.0022
     72  CD1       11.5460   15.1320   83.9600 C.3   154  LEU154      0.0001
     73  CD2       12.0120   13.8390   81.8600 C.3   154  LEU154      0.0001
     74  N          7.3990   12.9770   81.1670 N.am  155  PHE155     -0.1960
     75  CA         5.9840   12.6190   81.2010 C.3   155  PHE155      0.1771
     76  C          5.3070   13.5610   82.1850 C.2   155  PHE155      0.2620
     77  O          5.8010   13.7640   83.2880 O.2   155  PHE155     -0.2715
     78  CB         5.7960   11.1730   81.6710 C.3   155  PHE155      0.0574
     79  CG         6.1360   10.1460   80.6300 C.ar  155  PHE155     -0.0200
     80  CD1        5.3290    9.9850   79.5060 C.ar  155  PHE155     -0.0042
     81  CD2        7.2600    9.3420   80.7710 C.ar  155  PHE155     -0.0042
     82  CE1        5.6410    9.0340   78.5390 C.ar  155  PHE155     -0.0003
     83  CE2        7.5820    8.3890   79.8110 C.ar  155  PHE155     -0.0003
     84  CZ         6.7700    8.2340   78.6910 C.ar  155  PHE155     -0.0000
     85  N          4.1800   14.1390   81.7830 N.am  156  GLY156     -0.1940
     86  CA         3.4800   15.0550   82.6630 C.3   156  GLY156      0.2014
     87  C          3.8370   16.4980   82.3680 C.2   156  GLY156      0.2639
     88  O          3.2700   17.4070   82.9700 O.2   156  GLY156     -0.2714
     89  N          4.7780   16.7110   81.4480 N.am  157  GLU157     -0.1963
     90  CA         5.1920   18.0650   81.0730 C.3   157  GLU157      0.1718
     91  C          4.6310   18.4770   79.7130 C.2   157  GLU157      0.2458
     92  O          4.4730   17.6450   78.8180 O.2   157  GLU157     -0.2730
     93  CB         6.7200   18.1720   81.0320 C.3   157  GLU157      0.0428
     94  CG         7.3460   18.5650   82.3480 C.3   157  GLU157      0.1163
     95  CD         8.7890   19.0230   82.2040 C.2   157  GLU157      0.3649
     96  OE1        9.2250   19.8130   83.0700 O.co2 157  GLU157     -0.2457
     97  OE2        9.4840   18.5930   81.2500 O.co2 157  GLU157     -0.2457
     98  N          4.3020   19.7680   79.5460 N.am  158  PRO158     -0.2716
     99  CA         3.7660   20.2240   78.2620 C.3   158  PRO158      0.1536
    100  C          4.8770   20.3280   77.2180 C.2   158  PRO158      0.2598
    101  O          5.9900   20.7540   77.5310 O.2   158  PRO158     -0.2715
    102  CB         3.1660   21.5820   78.6070 C.3   158  PRO158      0.0310
    103  CG         4.0790   22.0730   79.6940 C.3   158  PRO158      0.0237
    104  CD         4.2320   20.8450   80.5530 C.3   158  PRO158      0.0939
    105  N          4.5830   19.9230   75.9870 N.am  159  LEU159     -0.1978
    106  CA         5.5750   19.9910   74.9220 C.3   159  LEU159      0.1596
    107  C          5.7480   21.4570   74.5220 C.2   159  LEU159      0.2287
    108  O          4.8330   22.2690   74.7020 O.2   159  LEU159     -0.2864
    109  CB         5.1240   19.1880   73.6980 C.3   159  LEU159      0.0297
    110  CG         4.4480   17.8210   73.8320 C.3   159  LEU159      0.0022
    111  CD1        4.5370   17.1130   72.4820 C.3   159  LEU159      0.0001
    112  CD2        5.0990   16.9800   74.9080 C.3   159  LEU159      0.0001
    113  N          5.4600   24.6460   72.6700 N.3   161  GLN161     -0.1245
    114  CA         4.4760   25.0980   71.6950 C.3   161  GLN161      0.1566
    115  C          5.0320   25.4860   70.3290 C.2   161  GLN161      0.2260
    116  O          4.4070   25.2010   69.3030 O.2   161  GLN161     -0.2867
    117  CB         3.6490   26.2490   72.2830 C.3   161  GLN161      0.0367
    118  CG         2.5840   25.7590   73.2620 C.3   161  GLN161      0.0905
    119  CD         1.8100   26.8790   73.9360 C.2   161  GLN161      0.2608
    120  OE1        1.2400   27.7470   73.2710 O.2   161  GLN161     -0.2717
    121  NE2        1.7740   26.8550   75.2670 N.am  161  GLN161     -0.0878
    122  N          5.7140   22.2620   68.5200 N.3   164  LEU164     -0.1245
    123  CA         4.4350   21.5960   68.3100 C.3   164  LEU164      0.1561
    124  C          3.6540   22.1940   67.1400 C.2   164  LEU164      0.2260
    125  O          3.0860   21.4560   66.3400 O.2   164  LEU164     -0.2867
    126  CB         3.5870   21.6410   69.5880 C.3   164  LEU164      0.0270
    127  CG         2.2020   20.9830   69.5260 C.3   164  LEU164      0.0019
    128  CD1        2.3170   19.5890   68.9270 C.3   164  LEU164      0.0001
    129  CD2        1.5980   20.9120   70.9280 C.3   164  LEU164      0.0001
    130  N          3.6560    4.5970   68.4480 N.3   184  LEU184     -0.1231
    131  CA         2.5470    5.5410   68.5320 C.3   184  LEU184      0.1693
    132  C          1.6920    5.3780   69.7910 C.2   184  LEU184      0.2592
    133  O          0.4690    5.2630   69.7090 O.2   184  LEU184     -0.2718
    134  CB         1.6540    5.4260   67.2880 C.3   184  LEU184      0.0284
    135  CG         2.3090    5.7240   65.9360 C.3   184  LEU184      0.0019
    136  CD1        1.2910    5.5520   64.8330 C.3   184  LEU184      0.0001
    137  CD2        2.8610    7.1360   65.9340 C.3   184  LEU184      0.0001
    138  N          2.3360    5.3530   70.9520 N.am  185  VAL185     -0.1966
    139  CA         1.6070    5.2410   72.2060 C.3   185  VAL185      0.1727
    140  C          1.9540    6.4280   73.0950 C.2   185  VAL185      0.2616
    141  O          1.5420    6.4890   74.2490 O.2   185  VAL185     -0.2715
    142  CB         1.9160    3.9170   72.9600 C.3   185  VAL185      0.0290
    143  CG1        1.5050    2.7210   72.1010 C.3   185  VAL185      0.0023
    144  CG2        3.3850    3.8520   73.3330 C.3   185  VAL185      0.0023
    145  N          2.7180    7.3700   72.5500 N.am  186  VAL186     -0.1963
    146  CA         3.0860    8.5740   73.2950 C.3   186  VAL186      0.1727
    147  C          2.3520    9.7740   72.6920 C.2   186  VAL186      0.2616
    148  O          2.4740   10.0430   71.4970 O.2   186  VAL186     -0.2715
    149  CB         4.6020    8.8490   73.2320 C.3   186  VAL186      0.0290
    150  CG1        4.9290   10.1480   73.9910 C.3   186  VAL186      0.0023
    151  CG2        5.3620    7.6900   73.8200 C.3   186  VAL186      0.0023
    152  N          1.5860   10.4840   73.5200 N.am  187  TYR187     -0.1960
    153  CA         0.8300   11.6440   73.0620 C.3   187  TYR187      0.1756
    154  C          1.3300   12.9460   73.6760 C.2   187  TYR187      0.2461
    155  O          1.9650   12.9390   74.7220 O.2   187  TYR187     -0.2730
    156  CB        -0.6490   11.4690   73.3920 C.3   187  TYR187      0.0574
    157  CG        -1.2740   10.2850   72.6950 C.ar  187  TYR187     -0.0198
    158  CD1       -0.9760    8.9810   73.0970 C.ar  187  TYR187     -0.0009
    159  CD2       -2.1650   10.4660   71.6380 C.ar  187  TYR187     -0.0009
    160  CE1       -1.5570    7.8890   72.4650 C.ar  187  TYR187      0.0417
    161  CE2       -2.7510    9.3840   70.9990 C.ar  187  TYR187      0.0417
    162  CZ        -2.4440    8.0970   71.4190 C.ar  187  TYR187      0.1957
    163  OH        -3.0280    7.0200   70.8020 O.3   187  TYR187     -0.2866
    164  N          1.0150   14.0860   73.0420 N.am  188  PRO188     -0.2727
    165  CA         0.2250   14.1880   71.8050 C.3   188  PRO188      0.1402
    166  C          0.9150   13.8060   70.4860 C.2   188  PRO188      0.2269
    167  O          0.2630   13.7730   69.4440 O.2   188  PRO188     -0.2865
    168  CB        -0.2220   15.6450   71.8100 C.3   188  PRO188      0.0296
    169  CG         0.9750   16.3390   72.4170 C.3   188  PRO188      0.0237
    170  CD         1.3200   15.4230   73.5840 C.3   188  PRO188      0.0939
    171  N         -1.7780    0.3730   66.8440 N.3   212  MET212     -0.1245
    172  CA        -3.2220    0.5300   66.7940 C.3   212  MET212      0.1570
    173  C         -3.6510    1.5020   65.6980 C.2   212  MET212      0.2261
    174  O         -4.8350    1.6280   65.4030 O.2   212  MET212     -0.2867
    175  CB        -3.7420    1.0190   68.1440 C.3   212  MET212      0.0387
    176  CG        -5.1620    0.5750   68.4330 C.3   212  MET212      0.0595
    177  SD        -5.3320   -1.2140   68.2100 S.3   212  MET212     -0.1393
    178  CE        -4.1550   -1.8210   69.4200 C.3   212  MET212      0.0692
@<TRIPOS>BOND
     1   136   135    1
     2   174   173    2
     3   173   172    1
     4   137   135    1
     5   135   134    1
     6   125   124    2
     7   172   171    1
     8   172   175    1
     9   124   123    1
    10   134   131    1
    11    33    31   am
    12   175   176    1
    13   177   176    1
    14   177   178    1
    15    17    18    1
    16   123   122    1
    17   123   126    1
    18   130   131    1
    19   131   132    1
    20    24    23    2
    21    31    30    1
    22    31    32    2
    23   128   127    1
    24    22    23    1
    25    22    21    1
    26    30    27    1
    27   116   115    2
    28    23    25   am
    29   167   166    2
    30   127   126    1
    31   127   129    1
    32    26    27    1
    33    26    19   am
    34   133   132    2
    35    18    21    1
    36    18    19    1
    37   132   138   am
    38    29    28    2
    39    27    28    1
    40   115   114    1
    41    19    20    2
    42   166   165    1
    43    28    34   am
    44   163   162    1
    45   138   139    1
    46   161   162   ar
    47   161   159   ar
    48   162   160   ar
    49   148   147    2
    50   159   157   ar
    51    34    35    1
    52   114   117    1
    53   114   113    1
    54   165   168    1
    55   165   164    1
    56   168   169    1
    57    42    43    1
    58   143   142    1
    59    36    35    1
    60    36    37    2
    61   139   142    1
    62   139   140    1
    63    35    38    1
    64   117   118    1
    65   169   170    1
    66   160   158   ar
    67   111   110    1
    68   145   140   am
    69   145   146    1
    70   147   146    1
    71   147   152   am
    72   157   158   ar
    73   157   156    1
    74    50    51   ar
    75    50    48   ar
    76   142   144    1
    77    51    49   ar
    78    48    47   ar
    79   164   170    1
    80   164   154   am
    81   153   156    1
    82   153   152    1
    83   153   154    1
    84   140   141    2
    85   149   146    1
    86   149   151    1
    87   149   150    1
    88   118   119    1
    89   120   119    2
    90    43    46    1
    91    43    44    1
    92    49    47   ar
    93    47    46    1
    94   154   155    2
    95   109   110    1
    96   109   106    1
    97    44    45    2
    98    38    40    1
    99    38    39    1
   100   110   112    1
   101   119   121   am
   102    39    41    1
   103   107   108    2
   104   107   106    1
   105   106   105    1
   106   105   100   am
   107    65    63    1
   108    63    64    1
   109    63    60    1
   110    57    56    1
   111   100   101    2
   112   100    99    1
   113    59    60    1
   114    59    54   am
   115    53    56    1
   116    53    54    1
   117    53    52    1
   118    56    58    1
   119    60    61    1
   120    62    61    2
   121    54    55    2
   122    99   102    1
   123    99    98    1
   124    82    84   ar
   125    82    80   ar
   126   102   103    1
   127    84    83   ar
   128    61    66   am
   129    92    91    2
   130    80    79   ar
   131    98    91   am
   132    98   104    1
   133   103   104    1
   134    91    90    1
   135    83    81   ar
   136    66    67    1
   137    69    68    2
   138    79    81   ar
   139    79    78    1
   140    68    67    1
   141    68    74   am
   142    67    70    1
   143     6     5    1
   144     6     7    1
   145    93    90    1
   146    93    94    1
   147    90    89    1
   148    74    75    1
   149    75    78    1
   150    75    76    1
   151     5     2    1
   152    97    95   ar
   153    89    87   am
   154    85    76   am
   155    85    86    1
   156    15    14   ar
   157    16    14   ar
   158    14    13    1
   159    73    71    1
   160    13    12    1
   161     7     1    1
   162    76    77    2
   163    95    94    1
   164    95    96   ar
   165    70    71    1
   166    87    86    1
   167    87    88    2
   168    71    72    1
   169     2     3    1
   170     2     1    1
   171     3     4    2
   172     3     8   am
   173     8     9    1
   174    12     9    1
   175     9    10    1
   176    10    11    2
