@<TRIPOS>MOLECULE
tmp/1maaC00.pdb
 200 198 0 0 0
SMALL
GASTEIGER

@<TRIPOS>ATOM
      1  N         55.9610  108.9440   87.9250 N.3    72  TYR72      -0.1241
      2  CA        55.7920  110.0880   87.0350 C.3    72  TYR72       0.1605
      3  C         54.5340  110.8410   87.5050 C.2    72  TYR72       0.2264
      4  O         53.5500  110.2270   87.9460 O.2    72  TYR72      -0.2867
      5  CB        55.6450  109.5900   85.5680 C.3    72  TYR72       0.0534
      6  CG        55.0020  110.5650   84.5690 C.ar   72  TYR72      -0.0201
      7  CD1       53.6010  110.6900   84.4830 C.ar   72  TYR72      -0.0009
      8  CD2       55.7860  111.4030   83.7550 C.ar   72  TYR72      -0.0009
      9  CE1       52.9960  111.6330   83.6300 C.ar   72  TYR72       0.0417
     10  CE2       55.1870  112.3570   82.8860 C.ar   72  TYR72       0.0417
     11  CZ        53.7900  112.4710   82.8360 C.ar   72  TYR72       0.1957
     12  OH        53.1840  113.4440   82.0460 O.3    72  TYR72      -0.2866
     13  N         51.5160  113.4830   86.4650 N.3    74  ASP74      -0.1239
     14  CA        50.7850  114.0250   85.3180 C.3    74  ASP74       0.1674
     15  C         50.5210  115.5410   85.3340 C.2    74  ASP74       0.2266
     16  O         49.5550  116.0620   85.9310 O.2    74  ASP74      -0.2867
     17  CB        49.4960  113.2300   85.0890 C.3    74  ASP74       0.1410
     18  CG        48.7680  113.6690   83.8420 C.2    74  ASP74       0.3668
     19  OD1       49.4510  114.0400   82.8590 O.co2  74  ASP74      -0.2456
     20  OD2       47.5200  113.6610   83.8470 O.co2  74  ASP74      -0.2456
     21  N         49.7280  117.3350   82.6260 N.3    76  LEU76      -0.1245
     22  CA        49.0400  117.7690   81.4290 C.3    76  LEU76       0.1561
     23  C         48.1870  118.9950   81.6530 C.2    76  LEU76       0.2260
     24  O         48.3550  120.0130   80.9730 O.2    76  LEU76      -0.2867
     25  CB        48.1790  116.6630   80.8330 C.3    76  LEU76       0.0270
     26  CG        47.6030  117.1230   79.4860 C.3    76  LEU76       0.0019
     27  CD1       48.7250  117.3400   78.4590 C.3    76  LEU76       0.0001
     28  CD2       46.6020  116.1310   78.9860 C.3    76  LEU76       0.0001
     29  N         44.2940  111.8380   90.3520 N.3    86  TRP86      -0.1241
     30  CA        45.0180  110.5720   90.2410 C.3    86  TRP86       0.1605
     31  C         46.4920  110.7110   90.5830 C.2    86  TRP86       0.2264
     32  O         47.2040  109.6990   90.6990 O.2    86  TRP86      -0.2867
     33  CB        44.8800  109.9640   88.8510 C.3    86  TRP86       0.0550
     34  CG        43.4740  109.9390   88.3210 C.ar   86  TRP86       0.0003
     35  CD1       42.9000  110.8450   87.4540 C.ar   86  TRP86       0.0946
     36  CD2       42.4470  108.9970   88.6490 C.ar   86  TRP86       0.0152
     37  NE1       41.5770  110.5240   87.2370 N.ar   86  TRP86      -0.2442
     38  CE2       41.2690  109.4000   87.9600 C.ar   86  TRP86       0.0810
     39  CE3       42.4000  107.8520   89.4630 C.ar   86  TRP86       0.0012
     40  CZ2       40.0510  108.6950   88.0670 C.ar   86  TRP86       0.0191
     41  CZ3       41.1830  107.1410   89.5720 C.ar   86  TRP86       0.0001
     42  CH2       40.0240  107.5720   88.8750 C.ar   86  TRP86       0.0015
     43  N         44.8430  101.3340   89.7030 N.3   120  GLY120     -0.1210
     44  CA        45.1470  101.5030   88.2890 C.3   120  GLY120      0.1956
     45  C         46.4120  102.2870   87.9630 C.2   120  GLY120      0.2612
     46  O         47.4170  102.1700   88.6600 O.2   120  GLY120     -0.2717
     47  N         46.3930  103.0160   86.8480 N.am  121  GLY121     -0.1942
     48  CA        47.5460  103.8250   86.4570 C.3   121  GLY121      0.2014
     49  C         48.5840  103.3340   85.4510 C.2   121  GLY121      0.2639
     50  O         49.7260  103.8000   85.5000 O.2   121  GLY121     -0.2714
     51  N         48.2170  102.4210   84.5470 N.am  122  GLY122     -0.1954
     52  CA        49.1630  101.9350   83.5470 C.3   122  GLY122      0.1869
     53  C         50.5440  101.4460   83.9850 C.2   122  GLY122      0.2309
     54  O         51.5390  101.5580   83.2460 O.2   122  GLY122     -0.2863
     55  N         52.7050  102.6630   85.5170 N.3   124  TYR124     -0.1227
     56  CA        53.7010  103.7290   85.6600 C.3   124  TYR124      0.1736
     57  C         53.3380  104.6850   86.7980 C.2   124  TYR124      0.2596
     58  O         54.1430  105.5540   87.1520 O.2   124  TYR124     -0.2718
     59  CB        53.8460  104.5340   84.3450 C.3   124  TYR124      0.0548
     60  CG        52.6230  105.3680   83.9570 C.ar  124  TYR124     -0.0200
     61  CD1       51.5890  104.8150   83.2200 C.ar  124  TYR124     -0.0009
     62  CD2       52.4860  106.6910   84.3690 C.ar  124  TYR124     -0.0009
     63  CE1       50.4320  105.5450   82.9040 C.ar  124  TYR124      0.0417
     64  CE2       51.3300  107.4430   84.0540 C.ar  124  TYR124      0.0417
     65  CZ        50.2980  106.8580   83.3230 C.ar  124  TYR124      0.1957
     66  OH        49.1240  107.5600   83.0310 O.3   124  TYR124     -0.2866
     67  N         52.1550  104.4830   87.3880 N.am  125  SER125     -0.1952
     68  CA        51.6390  105.3400   88.4530 C.3   125  SER125      0.1924
     69  C         50.5060  104.7160   89.3110 C.2   125  SER125      0.2314
     70  O         50.0210  103.6160   89.0080 O.2   125  SER125     -0.2863
     71  CB        51.0850  106.5980   87.8010 C.3   125  SER125      0.2116
     72  OG        49.9380  106.2860   87.0140 O.3   125  SER125     -0.2180
     73  N         39.9700  105.7400   96.4630 N.3   133  TYR133     -0.1241
     74  CA        40.1720  104.3840   96.9490 C.3   133  TYR133      0.1605
     75  C         40.0050  104.3160   98.4740 C.2   133  TYR133      0.2264
     76  O         40.7210  103.5770   99.1350 O.2   133  TYR133     -0.2867
     77  CB        41.5790  103.8990   96.5810 C.3   133  TYR133      0.0534
     78  CG        42.0430  104.1110   95.1420 C.ar  133  TYR133     -0.0201
     79  CD1       41.1520  104.0920   94.0540 C.ar  133  TYR133     -0.0009
     80  CD2       43.3930  104.3020   94.8770 C.ar  133  TYR133     -0.0009
     81  CE1       41.6210  104.2620   92.7330 C.ar  133  TYR133      0.0417
     82  CE2       43.8630  104.4650   93.5810 C.ar  133  TYR133      0.0417
     83  CZ        42.9910  104.4450   92.5090 C.ar  133  TYR133      0.1957
     84  OH        43.5390  104.5830   91.2420 O.3   133  TYR133     -0.2866
     85  N         41.2520   98.1600   88.7100 N.3   202  GLU202     -0.1231
     86  CA        40.7480   98.9420   87.5750 C.3   202  GLU202      0.1699
     87  C         41.9460   99.3020   86.7110 C.2   202  GLU202      0.2592
     88  O         43.0230   99.5560   87.2390 O.2   202  GLU202     -0.2718
     89  CB        40.0680  100.2030   88.0840 C.3   202  GLU202      0.0402
     90  CG        39.0730  100.7970   87.1380 C.3   202  GLU202      0.1161
     91  CD        39.6300  101.9210   86.2820 C.2   202  GLU202      0.3649
     92  OE1       40.8150  102.3430   86.4960 O.co2 202  GLU202     -0.2457
     93  OE2       38.8320  102.3810   85.4080 O.co2 202  GLU202     -0.2457
     94  N         41.7680   99.3180   85.3940 N.am  203  SER203     -0.1952
     95  CA        42.8740   99.6030   84.4700 C.3   203  SER203      0.1924
     96  C         44.0100   98.6250   84.8480 C.2   203  SER203      0.2314
     97  O         43.7610   97.4330   85.0900 O.2   203  SER203     -0.2863
     98  CB        43.3080  101.0900   84.5740 C.3   203  SER203      0.2116
     99  OG        44.2130  101.5370   83.5520 O.3   203  SER203     -0.2180
    100  N         59.6620  107.5100   79.5280 N.3   279  TRP279     -0.1241
    101  CA        58.8300  107.5900   78.3330 C.3   279  TRP279      0.1605
    102  C         59.5850  107.6110   77.0010 C.2   279  TRP279      0.2264
    103  O         59.0090  107.3780   75.9370 O.2   279  TRP279     -0.2867
    104  CB        57.9070  108.7870   78.4350 C.3   279  TRP279      0.0550
    105  CG        56.9460  108.6540   79.5410 C.ar  279  TRP279      0.0003
    106  CD1       57.0800  109.1500   80.8040 C.ar  279  TRP279      0.0946
    107  CD2       55.6540  108.0390   79.4850 C.ar  279  TRP279      0.0152
    108  NE1       55.9410  108.8980   81.5310 N.ar  279  TRP279     -0.2442
    109  CE2       55.0500  108.2210   80.7410 C.ar  279  TRP279      0.0810
    110  CE3       54.9470  107.3560   78.4920 C.ar  279  TRP279      0.0012
    111  CZ2       53.7730  107.7530   81.0270 C.ar  279  TRP279      0.0191
    112  CZ3       53.6710  106.8860   78.7810 C.ar  279  TRP279      0.0001
    113  CH2       53.1010  107.0900   80.0360 C.ar  279  TRP279      0.0015
    114  N         49.2610  105.9130   72.1060 N.3   287  ILE287     -0.1231
    115  CA        48.5050  106.2780   73.2860 C.3   287  ILE287      0.1692
    116  C         48.0260  104.9470   73.8260 C.2   287  ILE287      0.2592
    117  O         47.8250  103.9830   73.0700 O.2   287  ILE287     -0.2718
    118  CB        47.2710  107.1770   73.0500 C.3   287  ILE287      0.0266
    119  CG1       46.3310  106.5660   72.0330 C.3   287  ILE287      0.0019
    120  CG2       47.6800  108.5630   72.7360 C.3   287  ILE287      0.0020
    121  CD1       44.9510  107.1520   72.1110 C.3   287  ILE287      0.0001
    122  N         47.8760  104.8920   75.1410 N.am  288  PHE288     -0.1976
    123  CA        47.4200  103.6870   75.7920 C.3   288  PHE288      0.1639
    124  C         48.4150  102.5830   75.5810 C.2   288  PHE288      0.2290
    125  O         48.0530  101.4470   75.3410 O.2   288  PHE288     -0.2864
    126  CB        46.0510  103.2570   75.2840 C.3   288  PHE288      0.0560
    127  CG        45.2330  102.5710   76.3190 C.ar  288  PHE288     -0.0200
    128  CD1       45.8420  101.7660   77.2790 C.ar  288  PHE288     -0.0042
    129  CD2       43.8580  102.7620   76.3770 C.ar  288  PHE288     -0.0042
    130  CE1       45.0950  101.1680   78.2790 C.ar  288  PHE288     -0.0003
    131  CE2       43.0890  102.1600   77.3840 C.ar  288  PHE288     -0.0003
    132  CZ        43.7050  101.3670   78.3310 C.ar  288  PHE288     -0.0000
    133  N         52.1750  101.7530   77.4300 N.3   290  PHE290     -0.1241
    134  CA        53.1200  102.1700   78.4760 C.3   290  PHE290      0.1605
    135  C         54.4950  101.5140   78.4230 C.2   290  PHE290      0.2264
    136  O         54.6280  100.3440   78.0720 O.2   290  PHE290     -0.2867
    137  CB        52.4690  101.9560   79.8430 C.3   290  PHE290      0.0534
    138  CG        50.9980  102.2590   79.8440 C.ar  290  PHE290     -0.0203
    139  CD1       50.5410  103.5600   79.6200 C.ar  290  PHE290     -0.0042
    140  CD2       50.0690  101.2380   79.9610 C.ar  290  PHE290     -0.0042
    141  CE1       49.1880  103.8270   79.5060 C.ar  290  PHE290     -0.0003
    142  CE2       48.6950  101.4980   79.8450 C.ar  290  PHE290     -0.0003
    143  CZ        48.2560  102.7890   79.6160 C.ar  290  PHE290     -0.0000
    144  N         39.3670  109.7210   77.5710 N.3   330  TYR330     -0.1227
    145  CA        40.4710  110.1120   78.4460 C.3   330  TYR330      0.1736
    146  C         41.8330  110.1690   77.7030 C.2   330  TYR330      0.2595
    147  O         42.5030  111.1980   77.7130 O.2   330  TYR330     -0.2718
    148  CB        40.5260  109.1130   79.6320 C.3   330  TYR330      0.0548
    149  CG        41.5090  109.4340   80.7570 C.ar  330  TYR330     -0.0200
    150  CD1       42.8640  109.1110   80.6470 C.ar  330  TYR330     -0.0009
    151  CD2       41.0810  110.0600   81.9340 C.ar  330  TYR330     -0.0009
    152  CE1       43.7780  109.4070   81.6780 C.ar  330  TYR330      0.0417
    153  CE2       41.9860  110.3630   82.9790 C.ar  330  TYR330      0.0417
    154  CZ        43.3370  110.0360   82.8460 C.ar  330  TYR330      0.1957
    155  OH        44.2420  110.3390   83.8640 O.3   330  TYR330     -0.2866
    156  N         42.1480  109.1210   76.9410 N.am  331  PHE331     -0.1976
    157  CA        43.4290  108.9950   76.2480 C.3   331  PHE331      0.1639
    158  C         43.6890  109.8460   75.0360 C.2   331  PHE331      0.2290
    159  O         44.8510  110.0750   74.6750 O.2   331  PHE331     -0.2864
    160  CB        43.6350  107.5540   75.8400 C.3   331  PHE331      0.0560
    161  CG        43.4460  106.6080   76.9500 C.ar  331  PHE331     -0.0200
    162  CD1       42.1640  106.1780   77.2900 C.ar  331  PHE331     -0.0042
    163  CD2       44.5350  106.1990   77.7170 C.ar  331  PHE331     -0.0042
    164  CE1       41.9600  105.3510   78.3960 C.ar  331  PHE331     -0.0003
    165  CE2       44.3480  105.3730   78.8220 C.ar  331  PHE331     -0.0003
    166  CZ        43.0540  104.9470   79.1670 C.ar  331  PHE331     -0.0000
    167  N         45.5500  112.9520   75.3880 N.3   334  TYR334     -0.1241
    168  CA        46.9850  112.8380   75.6130 C.3   334  TYR334      0.1605
    169  C         47.8870  112.7050   74.4200 C.2   334  TYR334      0.2264
    170  O         49.1040  112.8020   74.5740 O.2   334  TYR334     -0.2867
    171  CB        47.2930  111.6760   76.5550 C.3   334  TYR334      0.0534
    172  CG        46.8860  111.9420   77.9710 C.ar  334  TYR334     -0.0201
    173  CD1       45.5440  111.8710   78.3560 C.ar  334  TYR334     -0.0009
    174  CD2       47.8340  112.2960   78.9250 C.ar  334  TYR334     -0.0009
    175  CE1       45.1600  112.1510   79.6610 C.ar  334  TYR334      0.0417
    176  CE2       47.4560  112.5760   80.2320 C.ar  334  TYR334      0.0417
    177  CZ        46.1220  112.5020   80.5940 C.ar  334  TYR334      0.1957
    178  OH        45.7600  112.7640   81.8930 O.3   334  TYR334     -0.2866
    179  N         37.3290  106.4760   81.4370 N.3   440  HIS440     -0.1226
    180  CA        38.0930  105.4380   82.1210 C.3   440  HIS440      0.1752
    181  C         38.3960  105.8320   83.5850 C.2   440  HIS440      0.2596
    182  O         39.1270  106.8130   83.8430 O.2   440  HIS440     -0.2718
    183  CB        39.4080  105.2430   81.3310 C.3   440  HIS440      0.0759
    184  CG        40.2130  104.0370   81.7180 C.ar  440  HIS440      0.0818
    185  ND1       39.6850  102.7620   81.7670 N.ar  440  HIS440     -0.2268
    186  CD2       41.5280  103.9100   82.0390 C.ar  440  HIS440      0.1154
    187  CE1       40.6370  101.9020   82.1060 C.ar  440  HIS440      0.1986
    188  NE2       41.7650  102.5720   82.2790 N.ar  440  HIS440     -0.2212
    189  N         37.8110  105.0760   84.5260 N.am  441  GLY441     -0.1957
    190  CA        38.0270  105.3050   85.9550 C.3   441  GLY441      0.1869
    191  C         36.9320  105.9850   86.7690 C.2   441  GLY441      0.2309
    192  O         36.9490  105.9710   88.0130 O.2   441  GLY441     -0.2863
    193  N         34.8700  104.0550   89.7650 N.3   444  ILE444     -0.1245
    194  CA        35.5500  103.7790   91.0240 C.3   444  ILE444      0.1561
    195  C         34.9430  104.4950   92.2110 C.2   444  ILE444      0.2260
    196  O         34.5850  103.8720   93.2060 O.2   444  ILE444     -0.2867
    197  CB        37.0290  104.1590   90.9440 C.3   444  ILE444      0.0252
    198  CG1       37.7110  103.3800   89.8190 C.3   444  ILE444      0.0019
    199  CG2       37.7070  103.8630   92.2670 C.3   444  ILE444      0.0019
    200  CD1       39.2060  103.6380   89.6820 C.3   444  ILE444      0.0001
@<TRIPOS>BOND
     1   119   121    1
     2   119   118    1
     3   114   115    1
     4   120   118    1
     5   118   115    1
     6   117   116    2
     7   115   116    1
     8   116   122   am
     9   169   170    2
    10   169   168    1
    11   159   158    2
    12   158   157    1
    13   122   123    1
    14   126   123    1
    15   126   127    1
    16   125   124    2
    17   167   168    1
    18   124   123    1
    19   168   171    1
    20   160   157    1
    21   160   161    1
    22   103   102    2
    23   157   156    1
    24   127   129   ar
    25   127   128   ar
    26   129   131   ar
    27   171   172    1
    28   156   146   am
    29   161   162   ar
    30   161   163   ar
    31   102   101    1
    32   128   130   ar
    33   162   164   ar
    34   131   132   ar
    35   133   134    1
    36   144   145    1
    37   146   147    2
    38   146   145    1
    39   163   165   ar
    40   172   173   ar
    41   172   174   ar
    42   136   135    2
    43   130   132   ar
    44   101   104    1
    45   101   100    1
    46   173   175   ar
    47   164   166   ar
    48   135   134    1
    49   104   105    1
    50   145   148    1
    51    27    26    1
    52   134   137    1
    53   110   112   ar
    54   110   107   ar
    55   112   113   ar
    56   165   166   ar
    57   174   176   ar
    58    28    26    1
    59   107   105   ar
    60   107   109   ar
    61    26    25    1
    62   141   143   ar
    63   141   139   ar
    64   105   106   ar
    65   143   142   ar
    66   139   138   ar
    67   148   149    1
    68   175   177   ar
    69   137   138    1
    70   138   140   ar
    71   142   140   ar
    72   113   111   ar
    73   176   177   ar
    74   177   178    1
    75   150   149   ar
    76   150   152   ar
    77   109   111   ar
    78   109   108   ar
    79   149   151   ar
    80   106   108   ar
    81    25    22    1
    82    24    23    2
    83   183   184    1
    84   183   180    1
    85    22    23    1
    86    22    21    1
    87   179   180    1
    88   152   154   ar
    89   184   185   ar
    90   184   186   ar
    91   185   187   ar
    92   151   153   ar
    93   186   188   ar
    94    12    11    1
    95   187   188   ar
    96   180   181    1
    97    11    10   ar
    98    11     9   ar
    99   154   153   ar
   100   154   155    1
   101    19    18   ar
   102    10     8   ar
   103    63    61   ar
   104    63    65   ar
   105    66    65    1
   106    61    60   ar
   107    54    53    2
   108    65    64   ar
   109    52    53    1
   110    52    51    1
   111    99    98    1
   112   181   182    2
   113   181   189   am
   114     9     7   ar
   115     8     6   ar
   116    18    20   ar
   117    18    17    1
   118    60    59    1
   119    60    62   ar
   120    64    62   ar
   121    59    56    1
   122    95    98    1
   123    95    96    1
   124    95    94    1
   125     7     6   ar
   126   189   190    1
   127    51    49   am
   128     6     5    1
   129    96    97    2
   130    17    14    1
   131    14    15    1
   132    14    13    1
   133    15    16    2
   134    94    87   am
   135    93    91   ar
   136    49    50    2
   137    49    48    1
   138    55    56    1
   139     5     2    1
   140    56    57    1
   141   190   191    1
   142    91    92   ar
   143    91    90    1
   144    48    47    1
   145    87    88    2
   146    87    86    1
   147   191   192    2
   148    57    58    2
   149    57    67   am
   150    47    45   am
   151    72    71    1
   152     2     3    1
   153     2     1    1
   154    90    89    1
   155    37    35   ar
   156    37    38   ar
   157    67    68    1
   158    35    34   ar
   159     3     4    2
   160    86    89    1
   161    86    85    1
   162    71    68    1
   163    38    40   ar
   164    38    36   ar
   165    45    44    1
   166    45    46    2
   167    40    42   ar
   168    44    43    1
   169    34    36   ar
   170    34    33    1
   171    68    69    1
   172    36    39   ar
   173    33    30    1
   174    42    41   ar
   175    70    69    2
   176    39    41   ar
   177   200   198    1
   178   193   194    1
   179   198   197    1
   180    30    29    1
   181    30    31    1
   182    31    32    2
   183   197   194    1
   184   197   199    1
   185   194   195    1
   186    84    83    1
   187   195   196    2
   188    83    81   ar
   189    83    82   ar
   190    81    79   ar
   191    82    80   ar
   192    79    78   ar
   193    80    78   ar
   194    78    77    1
   195    73    74    1
   196    77    74    1
   197    74    75    1
   198    75    76    2
