@<TRIPOS>MOLECULE
tmp/1mabA00.pdb
 158 149 0 0 0
SMALL
GASTEIGER

@<TRIPOS>ATOM
      1  N          8.8700   19.8930   91.6330 N.3   161  ASP161     -0.1225
      2  CA         7.4650   19.7560   91.2470 C.3   161  ASP161      0.1805
      3  C          6.9520   21.1400   90.8690 C.2   161  ASP161      0.2598
      4  O          7.6560   22.1450   91.0500 O.2   161  ASP161     -0.2718
      5  CB         6.6290   19.2100   92.4190 C.3   161  ASP161      0.1424
      6  CG         7.1770   17.9020   92.9840 C.2   161  ASP161      0.3668
      7  OD1        8.1150   17.9440   93.8100 O.co2 161  ASP161     -0.2456
      8  OD2        6.6530   16.8330   92.6130 O.co2 161  ASP161     -0.2456
      9  N          5.7310   21.1950   90.3500 N.am  162  ARG162     -0.1966
     10  CA         5.1260   22.4660   89.9710 C.3   162  ARG162      0.1729
     11  C          5.2550   23.4060   91.1670 C.2   162  ARG162      0.2616
     12  O          5.2120   22.9590   92.3100 O.2   162  ARG162     -0.2715
     13  CB         3.6370   22.2860   89.6730 C.3   162  ARG162      0.0348
     14  CG         3.2710   21.1140   88.7840 C.3   162  ARG162      0.0492
     15  CD         1.7720   21.0410   88.5770 C.3   162  ARG162      0.2205
     16  NE         1.0250   20.7100   89.7920 N.pl3 162  ARG162     -0.0865
     17  CZ         0.6100   21.5910   90.7040 C.cat 162  ARG162      0.5346
     18  NH1        0.8670   22.8860   90.5650 N.pl3 162  ARG162      0.1354
     19  NH2       -0.1190   21.1840   91.7350 N.pl3 162  ARG162      0.1354
     20  N          5.4390   24.6940   90.8990 N.am  163  GLN163     -0.1963
     21  CA         5.5660   25.6940   91.9500 C.3   163  GLN163      0.1733
     22  C          6.4210   25.2230   93.1230 C.2   163  GLN163      0.2617
     23  O          5.9060   24.9970   94.2230 O.2   163  GLN163     -0.2715
     24  CB         4.1850   26.0940   92.4550 C.3   163  GLN163      0.0408
     25  CG         4.1930   27.0610   93.6330 C.3   163  GLN163      0.0908
     26  CD         4.2700   28.5100   93.2120 C.2   163  GLN163      0.2608
     27  OE1        4.6150   28.8270   92.0720 O.2   163  GLN163     -0.2717
     28  NE2        3.9500   29.4050   94.1360 N.am  163  GLN163     -0.0878
     29  N          7.7120   25.0150   92.8780 N.am  164  THR164     -0.1937
     30  CA         8.6080   24.5930   93.9490 C.3   164  THR164      0.2028
     31  C          9.7920   25.5540   94.1150 C.2   164  THR164      0.2643
     32  O         10.4320   25.5840   95.1710 O.2   164  THR164     -0.2714
     33  CB         9.1380   23.1460   93.7550 C.3   164  THR164      0.1808
     34  OG1        8.0540   22.2490   93.4870 O.3   164  THR164     -0.2208
     35  CG2        9.7970   22.6840   95.0270 C.3   164  THR164      0.0379
     36  N         10.0640   26.3520   93.0860 N.am  165  GLY165     -0.1939
     37  CA        11.1690   27.2920   93.1640 C.3   165  GLY165      0.2014
     38  C         12.2450   27.1260   92.1010 C.2   165  GLY165      0.2639
     39  O         13.2300   27.8710   92.0970 O.2   165  GLY165     -0.2714
     40  N         12.0520   26.1810   91.1810 N.am  166  LYS166     -0.1963
     41  CA        13.0210   25.9410   90.1170 C.3   166  LYS166      0.1728
     42  C         13.4690   27.1870   89.3750 C.2   166  LYS166      0.2617
     43  O         14.5950   27.2280   88.9030 O.2   166  LYS166     -0.2715
     44  CB        12.4990   24.9290   89.1020 C.3   166  LYS166      0.0311
     45  CG        12.5090   23.4920   89.5750 C.3   166  LYS166      0.0038
     46  CD        12.0460   22.5230   88.4800 C.3   166  LYS166      0.0206
     47  CE        10.6620   22.8780   87.9430 C.3   166  LYS166      0.1093
     48  NZ         9.6560   23.0260   89.0320 N.3   166  LYS166     -0.1314
     49  N         12.6110   28.1950   89.2490 N.am  167  THR167     -0.1937
     50  CA        13.0180   29.4050   88.5360 C.3   167  THR167      0.2028
     51  C         13.5330   30.5380   89.4210 C.2   167  THR167      0.2642
     52  O         14.3390   31.3520   88.9750 O.2   167  THR167     -0.2714
     53  CB        11.9330   29.9180   87.5790 C.3   167  THR167      0.1808
     54  OG1       11.4140   28.8120   86.8160 O.3   167  THR167     -0.2208
     55  CG2       12.5280   30.9560   86.6110 C.3   167  THR167      0.0379
     56  N         13.0890   30.5920   90.6720 N.am  168  SER168     -0.1949
     57  CA        13.5840   31.6210   91.5780 C.3   168  SER168      0.1924
     58  C         15.0680   31.3320   91.7400 C.2   168  SER168      0.2314
     59  O         15.9040   32.1960   91.4910 O.2   168  SER168     -0.2863
     60  CB        12.8750   31.5570   92.9350 C.3   168  SER168      0.2116
     61  OG        12.9370   30.2670   93.5310 O.3   168  SER168     -0.2180
     62  N         18.0670   33.6360   90.8390 N.3   172  ASP172     -0.1239
     63  CA        18.9680   34.1710   91.8600 C.3   172  ASP172      0.1674
     64  C         20.3910   33.7580   91.4880 C.2   172  ASP172      0.2266
     65  O         21.3430   34.4930   91.7270 O.2   172  ASP172     -0.2867
     66  CB        18.6390   33.6050   93.2400 C.3   172  ASP172      0.1410
     67  CG        17.1890   33.7650   93.6100 C.2   172  ASP172      0.3668
     68  OD1       16.5510   34.7560   93.1790 O.co2 172  ASP172     -0.2456
     69  OD2       16.6900   32.8800   94.3380 O.co2 172  ASP172     -0.2456
     70  N          6.6060   27.7770   78.6890 N.3   199  GLN199     -0.1245
     71  CA         6.1160   28.9680   79.4070 C.3   199  GLN199      0.1566
     72  C          5.2480   30.0020   78.6960 C.2   199  GLN199      0.2260
     73  O          5.5090   30.3490   77.5500 O.2   199  GLN199     -0.2867
     74  CB         7.3080   29.7390   79.9610 C.3   199  GLN199      0.0367
     75  CG         8.1840   28.9850   80.9220 C.3   199  GLN199      0.0905
     76  CD         9.2230   29.8810   81.5330 C.2   199  GLN199      0.2608
     77  OE1        9.6480   29.6750   82.6760 O.2   199  GLN199     -0.2717
     78  NE2        9.6360   30.9020   80.7850 N.am  199  GLN199     -0.0878
     79  N          5.0000   35.0330   81.5300 N.3   203  THR203     -0.1218
     80  CA         5.8200   34.5490   82.6520 C.3   203  THR203      0.1862
     81  C          7.2580   34.9640   82.2830 C.2   203  THR203      0.2287
     82  O          8.0270   35.4430   83.1320 O.2   203  THR203     -0.2866
     83  CB         5.7740   33.0120   82.8290 C.3   203  THR203      0.1770
     84  OG1        4.7950   32.4510   81.9440 O.3   203  THR203     -0.2211
     85  CG2        5.4170   32.6470   84.2720 C.3   203  THR203      0.0375
     86  N         11.7340   41.6730   85.4670 N.3   210  ARG210     -0.1245
     87  CA        12.2910   41.5090   86.8030 C.3   210  ARG210      0.1563
     88  C         13.8040   41.5880   86.7710 C.2   210  ARG210      0.2260
     89  O         14.3940   42.4530   87.4200 O.2   210  ARG210     -0.2867
     90  CB        11.8100   40.2350   87.4900 C.3   210  ARG210      0.0307
     91  CG        11.3460   40.5210   88.9160 C.3   210  ARG210      0.0489
     92  CD        10.4750   39.4230   89.4910 C.3   210  ARG210      0.2205
     93  NE         9.7280   39.9210   90.6450 N.pl3 210  ARG210     -0.0865
     94  CZ         9.6480   39.3030   91.8210 C.cat 210  ARG210      0.5346
     95  NH1       10.2740   38.1450   92.0180 N.pl3 210  ARG210      0.1354
     96  NH2        8.9270   39.8400   92.8020 N.pl3 210  ARG210      0.1354
     97  N          9.3510   19.9990   79.5580 N.3   264  LYS264     -0.1245
     98  CA         8.3490   20.6440   78.7130 C.3   264  LYS264      0.1561
     99  C          8.7510   20.4610   77.2550 C.2   264  LYS264      0.2260
    100  O          7.8960   20.4710   76.3830 O.2   264  LYS264     -0.2867
    101  CB         8.1740   22.1230   79.0460 C.3   264  LYS264      0.0271
    102  CG         6.9750   22.4370   79.9510 C.3   264  LYS264      0.0035
    103  CD         7.0840   21.7650   81.3310 C.3   264  LYS264      0.0206
    104  CE         5.9370   22.1500   82.2700 C.3   264  LYS264      0.1093
    105  NZ         5.8360   23.6140   82.5280 N.3   264  LYS264     -0.1314
    106  N         10.3740   19.0730   85.5360 N.3   319  GLU319     -0.1245
    107  CA         9.0790   18.9720   86.2070 C.3   319  GLU319      0.1567
    108  C          8.8840   17.6830   86.9990 C.2   319  GLU319      0.2260
    109  O          8.7420   16.6090   86.4170 O.2   319  GLU319     -0.2867
    110  CB         7.9580   19.0480   85.1720 C.3   319  GLU319      0.0388
    111  CG         6.5600   18.9630   85.7660 C.3   319  GLU319      0.1160
    112  CD         6.0520   20.3090   86.2450 C.2   319  GLU319      0.3649
    113  OE1        5.7000   21.1290   85.3730 O.co2 319  GLU319     -0.2457
    114  OE2        6.0120   20.5530   87.4740 O.co2 319  GLU319     -0.2457
    115  N          8.3780   22.8350  100.8050 N.3   348  PHE348     -0.1241
    116  CA         8.1210   24.2660  100.5950 C.3   348  PHE348      0.1605
    117  C          7.4520   25.0810  101.7050 C.2   348  PHE348      0.2264
    118  O          8.1280   25.7040  102.5200 O.2   348  PHE348     -0.2867
    119  CB         7.3820   24.4870   99.2660 C.3   348  PHE348      0.0534
    120  CG         7.6590   25.8320   98.6260 C.ar  348  PHE348     -0.0203
    121  CD1        8.9210   26.4210   98.7180 C.ar  348  PHE348     -0.0042
    122  CD2        6.6680   26.4940   97.9030 C.ar  348  PHE348     -0.0042
    123  CE1        9.1890   27.6440   98.0960 C.ar  348  PHE348     -0.0003
    124  CE2        6.9290   27.7200   97.2760 C.ar  348  PHE348     -0.0003
    125  CZ         8.1910   28.2930   97.3740 C.ar  348  PHE348     -0.0000
    126  N         12.4310   25.8080  102.4640 N.3   353  ARG353     -0.1245
    127  CA        12.7350   26.2380  101.1000 C.3   353  ARG353      0.1563
    128  C         14.2080   26.6270  101.1080 C.2   353  ARG353      0.2260
    129  O         14.6830   27.1930  102.0850 O.2   353  ARG353     -0.2867
    130  CB        11.8620   27.4380  100.7140 C.3   353  ARG353      0.0307
    131  CG        11.8140   28.5380  101.7630 C.3   353  ARG353      0.0489
    132  CD        10.5680   29.3810  101.5990 C.3   353  ARG353      0.2205
    133  NE         9.3710   28.5470  101.5290 N.pl3 353  ARG353     -0.0865
    134  CZ         8.1590   28.9890  101.2120 C.cat 353  ARG353      0.5346
    135  NH1        7.9560   30.2700  100.9380 N.pl3 353  ARG353      0.1354
    136  NH2        7.1510   28.1340  101.1350 N.pl3 353  ARG353      0.1354
    137  N         17.3050   29.2530  102.5750 N.3   421  GLN421     -0.1230
    138  CA        17.4690   30.4880  101.8140 C.3   421  GLN421      0.1701
    139  C         16.1690   30.8210  101.0780 C.2   421  GLN421      0.2632
    140  O         15.4500   29.9220  100.6300 O.2   421  GLN421     -0.2714
    141  CB        18.6220   30.3410  100.8050 C.3   421  GLN421      0.0381
    142  CG        18.7920   31.5130   99.8270 C.3   421  GLN421      0.0905
    143  CD        19.3030   32.7780  100.4910 C.2   421  GLN421      0.2608
    144  OE1       19.2920   32.8960  101.7140 O.2   421  GLN421     -0.2717
    145  NE2       19.7670   33.7290   99.6830 N.am  421  GLN421     -0.0878
    146  N         15.8760   32.1120  100.9580 N.am  422  GLY422     -0.1718
    147  CA        14.6750   32.5290  100.2620 C.2   422  GLY422      0.1480
    148  C         14.4400   34.0260  100.2290 C.2   422  GLY422      0.2820
    149  O         13.9400   34.5860  101.1970 O.2   422  GLY422     -0.2669
    150  N         14.7830   34.6690   99.1140 N.am  423  GLN423     -0.1943
    151  CA        14.6000   36.1130   98.9430 C.3   423  GLN423      0.1604
    152  C         15.1200   36.4930   97.5600 C.2   423  GLN423      0.2287
    153  O         15.8580   35.7200   96.9500 O.2   423  GLN423     -0.2864
    154  CB        15.3740   36.8840  100.0270 C.3   423  GLN423      0.0394
    155  CG        14.6550   38.1210  100.5820 C.3   423  GLN423      0.0908
    156  CD        15.0850   39.4180   99.9190 C.2   423  GLN423      0.2608
    157  OE1       14.6380   39.7600   98.8210 O.2   423  GLN423     -0.2717
    158  NE2       15.9500   40.1540  100.5920 N.am  423  GLN423     -0.0878
@<TRIPOS>BOND
     1   100    99    2
     2    99    98    1
     3    73    72    2
     4    70    71    1
     5    72    71    1
     6    98   101    1
     7    98    97    1
     8   101   102    1
     9    71    74    1
    10   102   103    1
    11    74    75    1
    12    78    76   am
    13    75    76    1
    14   103   104    1
    15    79    80    1
    16    76    77    2
    17    84    83    1
    18   104   105    1
    19    81    80    1
    20    81    82    2
    21    80    83    1
    22    83    85    1
    23   110   111    1
    24   110   107    1
    25   113   112   ar
    26    86    87    1
    27   106   107    1
    28   111   112    1
    29   107   108    1
    30   112   114   ar
    31   109   108    2
    32    55    53    1
    33    88    87    1
    34    88    89    2
    35    87    90    1
    36    54    53    1
    37    90    91    1
    38    53    50    1
    39    47    46    1
    40    47    48    1
    41    46    45    1
    42    50    49    1
    43    50    51    1
    44    15    14    1
    45    15    16    1
    46    14    13    1
    47    43    42    2
    48    91    92    1
    49    52    51    2
    50    44    45    1
    51    44    41    1
    52    49    42   am
    53    42    41    1
    54    51    56   am
    55    92    93    1
    56    13    10    1
    57    16    17    2
    58    10     9    1
    59    10    11    1
    60    41    40    1
    61     9     3   am
    62    18    17    1
    63    93    94    2
    64    56    57    1
    65    17    19    1
    66    62    63    1
    67     3     4    2
    68     3     2    1
    69    20    11   am
    70    20    21    1
    71    11    12    2
    72    40    38   am
    73     2     1    1
    74     2     5    1
    75    64    65    2
    76    64    63    1
    77    59    58    2
    78    57    58    1
    79    57    60    1
    80    94    95    1
    81    94    96    1
    82    63    66    1
    83    21    24    1
    84    21    22    1
    85    27    26    2
    86    39    38    2
    87    38    37    1
    88     5     6    1
    89    24    25    1
    90     8     6   ar
    91    29    22   am
    92    29    30    1
    93    60    61    1
    94     6     7   ar
    95    36    37    1
    96    36    31   am
    97    22    23    2
    98    68    67   ar
    99    26    25    1
   100    26    28   am
   101    66    67    1
   102    34    33    1
   103    67    69   ar
   104    33    30    1
   105    33    35    1
   106    30    31    1
   107    31    32    2
   108   153   152    2
   109   124   125   ar
   110   124   122   ar
   111   125   123   ar
   112   152   151    1
   113   122   120   ar
   114   123   121   ar
   115   120   121   ar
   116   120   119    1
   117   157   156    2
   118   151   150    1
   119   151   154    1
   120   150   148   am
   121   119   116    1
   122   145   143   am
   123   142   143    1
   124   142   141    1
   125   156   155    1
   126   156   158   am
   127   154   155    1
   128   148   147    1
   129   148   149    2
   130   147   146    2
   131   143   144    2
   132   116   115    1
   133   116   117    1
   134   140   139    2
   135   130   127    1
   136   130   131    1
   137   141   138    1
   138   135   134    1
   139   146   139    1
   140   139   138    1
   141   127   128    1
   142   127   126    1
   143   128   129    2
   144   136   134    1
   145   134   133    2
   146   133   132    1
   147   132   131    1
   148   117   118    2
   149   138   137    1
