@<TRIPOS>MOLECULE
tmp/1mabB01.pdb
 124 122 0 0 0
SMALL
GASTEIGER

@<TRIPOS>ATOM
      1  N        -17.5990   16.2740   89.6060 N.3   159  GLY159     -0.1210
      2  CA       -18.3490   16.8060   90.7240 C.3   159  GLY159      0.1956
      3  C        -17.6350   16.8680   92.0620 C.2   159  GLY159      0.2612
      4  O        -17.7430   15.9570   92.8820 O.2   159  GLY159     -0.2717
      5  N        -16.9480   17.9830   92.2950 N.am  160  VAL160     -0.1965
      6  CA       -16.2020   18.2470   93.5350 C.3   160  VAL160      0.1727
      7  C        -15.9820   19.7580   93.6410 C.2   160  VAL160      0.2617
      8  O        -15.7630   20.3120   94.7140 O.2   160  VAL160     -0.2715
      9  CB       -14.7970   17.5580   93.5450 C.3   160  VAL160      0.0290
     10  CG1      -14.9260   16.0480   93.7450 C.3   160  VAL160      0.0023
     11  CG2      -14.0300   17.8760   92.2590 C.3   160  VAL160      0.0023
     12  N        -16.0040   20.3990   92.4840 N.am  161  GLY161     -0.1940
     13  CA       -15.8040   21.8240   92.3730 C.3   161  GLY161      0.2014
     14  C        -15.8900   22.0470   90.8800 C.2   161  GLY161      0.2639
     15  O        -16.3900   21.1750   90.1860 O.2   161  GLY161     -0.2714
     16  N        -15.3250   23.1430   90.3820 N.am  162  LYS162     -0.1963
     17  CA       -15.3530   23.5060   88.9600 C.3   162  LYS162      0.1728
     18  C        -16.6190   24.3060   88.6850 C.2   162  LYS162      0.2617
     19  O        -16.7020   25.4360   89.1420 O.2   162  LYS162     -0.2715
     20  CB       -15.2030   22.2940   88.0260 C.3   162  LYS162      0.0311
     21  CG       -13.9560   21.4410   88.2870 C.3   162  LYS162      0.0038
     22  CD       -13.4490   20.7760   87.0160 C.3   162  LYS162      0.0206
     23  CE       -14.5650   20.1150   86.2160 C.3   162  LYS162      0.1093
     24  NZ       -15.2000   18.9860   86.9340 N.3   162  LYS162     -0.1314
     25  N        -17.6290   23.7270   88.0350 N.am  163  THR163     -0.1937
     26  CA       -18.8760   24.4590   87.7470 C.3   163  THR163      0.2028
     27  C        -19.3740   25.2410   88.9690 C.2   163  THR163      0.2642
     28  O        -19.5860   26.4460   88.8820 O.2   163  THR163     -0.2714
     29  CB       -20.0270   23.5220   87.2240 C.3   163  THR163      0.1808
     30  OG1      -19.6120   22.8290   86.0330 O.3   163  THR163     -0.2208
     31  CG2      -21.2830   24.3400   86.9060 C.3   163  THR163      0.0379
     32  N        -19.4920   24.5730   90.1140 N.am  164  VAL164     -0.1977
     33  CA       -19.9500   25.2280   91.3430 C.3   164  VAL164      0.1596
     34  C        -19.1190   26.4610   91.6920 C.2   164  VAL164      0.2287
     35  O        -19.6680   27.5440   91.9160 O.2   164  VAL164     -0.2864
     36  CB       -19.9390   24.2520   92.5460 C.3   164  VAL164      0.0276
     37  CG1      -20.0020   25.0020   93.8540 C.3   164  VAL164      0.0022
     38  CG2      -21.1130   23.3230   92.4570 C.3   164  VAL164      0.0022
     39  N        -19.3280   20.4650   79.0250 N.3   188  GLU188     -0.1231
     40  CA       -20.3380   20.3500   80.0850 C.3   188  GLU188      0.1699
     41  C        -21.8400   20.4270   79.7920 C.2   188  GLU188      0.2592
     42  O        -22.2670   20.7660   78.6920 O.2   188  GLU188     -0.2718
     43  CB       -19.9580   21.2420   81.2590 C.3   188  GLU188      0.0402
     44  CG       -19.2500   20.4920   82.3790 C.3   188  GLU188      0.1161
     45  CD       -18.1350   19.5610   81.8970 C.2   188  GLU188      0.3649
     46  OE1      -17.1860   20.0330   81.2440 O.co2 188  GLU188     -0.2457
     47  OE2      -18.2020   18.3500   82.1890 O.co2 188  GLU188     -0.2457
     48  N        -22.6250   20.0790   80.8120 N.am  189  ARG189     -0.1980
     49  CA       -24.1010   20.0360   80.7670 C.3   189  ARG189      0.1597
     50  C        -24.8340   21.2050   80.0950 C.2   189  ARG189      0.2287
     51  O        -24.4250   22.3660   80.2300 O.2   189  ARG189     -0.2864
     52  CB       -24.6850   19.8950   82.1880 C.3   189  ARG189      0.0334
     53  CG       -24.1650   18.7470   83.0440 C.3   189  ARG189      0.0492
     54  CD       -22.8360   19.0790   83.7310 C.3   189  ARG189      0.2205
     55  NE       -22.3860   17.9850   84.5960 N.pl3 189  ARG189     -0.0865
     56  CZ       -22.0500   18.1270   85.8770 C.cat 189  ARG189      0.5346
     57  NH1      -22.0960   19.3250   86.4490 N.pl3 189  ARG189      0.1354
     58  NH2      -21.7390   17.0600   86.6080 N.pl3 189  ARG189      0.1354
     59  N        -16.1290   16.0780  103.6410 N.3   343  GLY343     -0.1225
     60  CA       -17.0500   17.1980  103.5780 C.3   343  GLY343      0.1811
     61  C        -16.3960   18.4940  103.1570 C.2   343  GLY343      0.2280
     62  O        -17.0170   19.3090  102.4750 O.2   343  GLY343     -0.2866
     63  N        -15.4140   21.5900  101.9460 N.3   345  TYR345     -0.1228
     64  CA       -15.7960   22.2520  100.7050 C.3   345  TYR345      0.1721
     65  C        -15.6760   23.7780  100.6900 C.2   345  TYR345      0.2437
     66  O        -16.0530   24.4370  101.6540 O.2   345  TYR345     -0.2733
     67  CB       -17.2110   21.8320  100.3150 C.3   345  TYR345      0.0547
     68  CG       -17.2420   20.7770   99.2400 C.ar  345  TYR345     -0.0200
     69  CD1      -17.1940   19.4230   99.5520 C.ar  345  TYR345     -0.0009
     70  CD2      -17.3090   21.1390   97.9000 C.ar  345  TYR345     -0.0009
     71  CE1      -17.2120   18.4550   98.5480 C.ar  345  TYR345      0.0417
     72  CE2      -17.3310   20.1870   96.8960 C.ar  345  TYR345      0.0417
     73  CZ       -17.2820   18.8490   97.2180 C.ar  345  TYR345      0.1957
     74  OH       -17.3180   17.9190   96.2020 O.3   345  TYR345     -0.2866
     75  N        -15.1390   24.3560   99.5920 N.am  346  PRO346     -0.2729
     76  CA       -14.6570   23.6370   98.4070 C.3   346  PRO346      0.1401
     77  C        -13.5540   22.6370   98.7510 C.2   346  PRO346      0.2269
     78  O        -12.8910   22.7710   99.7730 O.2   346  PRO346     -0.2865
     79  CB       -14.1810   24.7670   97.4850 C.3   346  PRO346      0.0296
     80  CG       -13.9130   25.9060   98.4110 C.3   346  PRO346      0.0237
     81  CD       -15.0370   25.8100   99.3840 C.3   346  PRO346      0.0939
     82  N        -15.1890   26.8410  103.4630 N.3   416  GLN416     -0.1231
     83  CA       -16.2540   27.8180  103.2320 C.3   416  GLN416      0.1683
     84  C        -17.3390   27.2670  102.2930 C.2   416  GLN416      0.2434
     85  O        -17.1430   27.2020  101.0770 O.2   416  GLN416     -0.2733
     86  CB       -15.6250   29.0770  102.6330 C.3   416  GLN416      0.0380
     87  CG       -16.5690   30.2260  102.3630 C.3   416  GLN416      0.0905
     88  CD       -15.9100   31.3220  101.5390 C.2   416  GLN416      0.2608
     89  OE1      -15.3030   32.2540  102.0740 O.2   416  GLN416     -0.2717
     90  NE2      -15.9960   31.1910  100.2270 N.am  416  GLN416     -0.0878
     91  N        -18.5250   26.9410  102.8410 N.am  417  PRO417     -0.2718
     92  CA       -19.6680   26.3930  102.0940 C.3   417  PRO417      0.1535
     93  C        -20.2170   27.3140  101.0030 C.2   417  PRO417      0.2598
     94  O        -20.6070   26.8560   99.9290 O.2   417  PRO417     -0.2715
     95  CB       -20.7160   26.1730  103.1890 C.3   417  PRO417      0.0310
     96  CG       -19.9030   26.0380  104.4420 C.3   417  PRO417      0.0237
     97  CD       -18.8790   27.1110  104.2590 C.3   417  PRO417      0.0939
     98  N        -20.2600   28.6070  101.3070 N.am  418  PHE418     -0.1974
     99  CA       -20.7620   29.6520  100.4110 C.3   418  PHE418      0.1639
    100  C        -22.1230   29.4770   99.7150 C.2   418  PHE418      0.2290
    101  O        -22.7060   28.3900   99.6900 O.2   418  PHE418     -0.2864
    102  CB       -19.6770   30.1510   99.4370 C.3   418  PHE418      0.0560
    103  CG       -19.1620   29.1150   98.4720 C.ar  418  PHE418     -0.0200
    104  CD1      -20.0230   28.4400   97.6150 C.ar  418  PHE418     -0.0042
    105  CD2      -17.7930   28.8820   98.3660 C.ar  418  PHE418     -0.0042
    106  CE1      -19.5270   27.5590   96.6680 C.ar  418  PHE418     -0.0003
    107  CE2      -17.2860   28.0010   97.4190 C.ar  418  PHE418     -0.0003
    108  CZ       -18.1520   27.3390   96.5670 C.ar  418  PHE418     -0.0000
    109  N        -23.8790   26.5050   97.2210 N.3   421  ALA421     -0.1245
    110  CA       -24.2780   25.1990   97.7520 C.3   421  ALA421      0.1562
    111  C        -25.6110   25.2720   98.5150 C.2   421  ALA421      0.2260
    112  O        -25.9910   24.3340   99.2250 O.2   421  ALA421     -0.2867
    113  CB       -23.1870   24.6520   98.6510 C.3   421  ALA421      0.0290
    114  N        -28.3980   22.2140   99.0550 N.3   424  PHE424     -0.1241
    115  CA       -28.2360   20.9680   99.8120 C.3   424  PHE424      0.1605
    116  C        -28.6670   21.0570  101.2740 C.2   424  PHE424      0.2264
    117  O        -29.0930   20.0590  101.8590 O.2   424  PHE424     -0.2867
    118  CB       -26.7850   20.4770   99.7480 C.3   424  PHE424      0.0534
    119  CG       -26.2900   20.2240   98.3550 C.ar  424  PHE424     -0.0203
    120  CD1      -26.9800   19.3710   97.5010 C.ar  424  PHE424     -0.0042
    121  CD2      -25.1440   20.8560   97.8890 C.ar  424  PHE424     -0.0042
    122  CE1      -26.5390   19.1530   96.2040 C.ar  424  PHE424     -0.0003
    123  CE2      -24.6960   20.6460   96.5950 C.ar  424  PHE424     -0.0003
    124  CZ       -25.3950   19.7930   95.7490 C.ar  424  PHE424     -0.0000
@<TRIPOS>BOND
     1    42    41    2
     2    39    40    1
     3    41    40    1
     4    41    48   am
     5    40    43    1
     6    50    51    2
     7    50    49    1
     8    49    48    1
     9    49    52    1
    10    46    45   ar
    11    43    44    1
    12    45    47   ar
    13    45    44    1
    14    52    53    1
    15    53    54    1
    16    54    55    1
    17    55    56    2
    18    56    57    1
    19    56    58    1
    20    30    29    1
    21    23    24    1
    22    23    22    1
    23    31    29    1
    24    22    21    1
    25    29    26    1
    26    26    25    1
    27    26    27    1
    28    20    21    1
    29    20    17    1
    30    25    18   am
    31    18    17    1
    32    18    19    2
    33    28    27    2
    34    17    16    1
    35    27    32   am
    36     1     2    1
    37    32    33    1
    38    15    14    2
    39    16    14   am
    40     2     3    1
    41    14    13    1
    42    33    34    1
    43    33    36    1
    44    34    35    2
    45     3     5   am
    46     3     4    2
    47    11     9    1
    48     5     6    1
    49    13    12    1
    50    38    36    1
    51    12     7   am
    52    36    37    1
    53     6     9    1
    54     6     7    1
    55     9    10    1
    56     7     8    2
    57   124   122   ar
    58   124   123   ar
    59    74    73    1
    60   122   120   ar
    61   108   106   ar
    62   108   107   ar
    63   123   121   ar
    64   106   104   ar
    65    72    73   ar
    66    72    70   ar
    67    73    71   ar
    68   109   110    1
    69   107   105   ar
    70    79    76    1
    71    79    80    1
    72   120   119   ar
    73   104   103   ar
    74   110   111    1
    75   110   113    1
    76   121   119   ar
    77    70    68   ar
    78   119   118    1
    79   105   103   ar
    80    76    77    1
    81    76    75    1
    82    80    81    1
    83   103   102    1
    84   111   112    2
    85    71    69   ar
    86    77    78    2
    87   114   115    1
    88    68    69   ar
    89    68    67    1
    90    81    75    1
    91   102    99    1
    92    75    65   am
    93   101   100    2
    94   100    99    1
    95   118   115    1
    96   115   116    1
    97    94    93    2
    98    90    88   am
    99    67    64    1
   100    99    98    1
   101    65    64    1
   102    65    66    2
   103    64    63    1
   104    93    98   am
   105    93    92    1
   106    85    84    2
   107   116   117    2
   108    88    89    2
   109    88    87    1
   110    92    91    1
   111    92    95    1
   112    84    91   am
   113    84    83    1
   114    87    86    1
   115    62    61    2
   116    86    83    1
   117    91    97    1
   118    61    60    1
   119    95    96    1
   120    83    82    1
   121    60    59    1
   122    97    96    1
