@<TRIPOS>MOLECULE
tmp/1maiA00.pdb
 119 114 0 0 0
SMALL
GASTEIGER

@<TRIPOS>ATOM
      1  N         23.4510   18.8520    6.3210 N.3    19  LYS19      -0.1245
      2  CA        24.4370   18.7860    7.3780 C.3    19  LYS19       0.1561
      3  C         25.0830   20.1710    7.4720 C.2    19  LYS19       0.2260
      4  O         25.5450   20.7290    6.4530 O.2    19  LYS19      -0.2867
      5  CB        25.5010   17.7170    7.0890 C.3    19  LYS19       0.0271
      6  CG        26.4150   17.4550    8.2770 C.3    19  LYS19       0.0035
      7  CD        27.7800   16.9230    7.8760 C.3    19  LYS19       0.0206
      8  CE        27.7930   15.4490    7.6860 C.3    19  LYS19       0.1093
      9  NZ        29.1720   15.0040    7.4120 N.3    19  LYS19      -0.1314
     10  N         28.0410   22.5610    8.8920 N.3    21  LYS21      -0.1245
     11  CA        29.4460   22.5720    9.3280 C.3    21  LYS21       0.1561
     12  C         29.9960   23.9970    9.5530 C.2    21  LYS21       0.2260
     13  O         30.8890   24.1860   10.3560 O.2    21  LYS21      -0.2867
     14  CB        30.3410   21.8040    8.3530 C.3    21  LYS21       0.0271
     15  CG        30.0970   20.2840    8.2810 C.3    21  LYS21       0.0035
     16  CD        30.3240   19.5850    9.6080 C.3    21  LYS21       0.0206
     17  CE        31.7300   19.8260   10.1580 C.3    21  LYS21       0.1093
     18  NZ        31.9870   19.0070   11.3870 N.3    21  LYS21      -0.1314
     19  N         29.1460   26.1070    4.6190 N.3    25  TRP25      -0.1241
     20  CA        28.9810   24.6640    4.4590 C.3    25  TRP25       0.1605
     21  C         27.6890   24.1540    5.1050 C.2    25  TRP25       0.2264
     22  O         27.6050   23.9960    6.3280 O.2    25  TRP25      -0.2867
     23  CB        30.1960   23.9310    5.0570 C.3    25  TRP25       0.0550
     24  CG        30.5660   22.6230    4.3870 C.ar   25  TRP25       0.0003
     25  CD1       31.6130   22.4190    3.5350 C.ar   25  TRP25       0.0946
     26  CD2       29.8870   21.3520    4.5030 C.ar   25  TRP25       0.0152
     27  NE1       31.6260   21.1110    3.1100 N.ar   25  TRP25      -0.2442
     28  CE2       30.5790   20.4350    3.6870 C.ar   25  TRP25       0.0810
     29  CE3       28.7620   20.9050    5.2110 C.ar   25  TRP25       0.0012
     30  CZ2       30.1810   19.0920    3.5560 C.ar   25  TRP25       0.0191
     31  CZ3       28.3740   19.5750    5.0790 C.ar   25  TRP25       0.0001
     32  CH2       29.0830   18.6860    4.2570 C.ar   25  TRP25       0.0015
     33  N         25.2360   21.2750    3.5410 N.3    27  ARG27      -0.1245
     34  CA        24.9880   20.4420    2.3850 C.3    27  ARG27       0.1563
     35  C         24.0720   19.2840    2.6070 C.2    27  ARG27       0.2260
     36  O         23.9990   18.7330    3.7010 O.2    27  ARG27      -0.2867
     37  CB        26.3260   19.9650    1.8220 C.3    27  ARG27       0.0307
     38  CG        27.2020   21.1320    1.4110 C.3    27  ARG27       0.0489
     39  CD        28.5140   20.7570    0.8260 C.3    27  ARG27       0.2205
     40  NE        29.3220   21.9570    0.6650 N.pl3  27  ARG27      -0.0865
     41  CZ        30.4920   21.9970    0.0420 C.cat  27  ARG27       0.5346
     42  NH1       30.9970   20.8910   -0.4920 N.pl3  27  ARG27       0.1354
     43  NH2       31.1640   23.1410   -0.0310 N.pl3  27  ARG27       0.1354
     44  N         22.5960   15.6410    2.6110 N.3    29  ARG29      -0.1245
     45  CA        23.1530   14.3390    2.8900 C.3    29  ARG29       0.1563
     46  C         21.9630   13.4450    3.1830 C.2    29  ARG29       0.2260
     47  O         21.0300   13.8530    3.8650 O.2    29  ARG29      -0.2867
     48  CB        24.0760   14.4150    4.1100 C.3    29  ARG29       0.0307
     49  CG        25.4150   15.1390    3.8960 C.3    29  ARG29       0.0489
     50  CD        26.3040   14.3300    2.9480 C.3    29  ARG29       0.2205
     51  NE        27.6750   14.8380    2.7940 N.pl3  29  ARG29      -0.0865
     52  CZ        28.0520   15.7640    1.9140 C.cat  29  ARG29       0.5346
     53  NH1       27.1660   16.3190    1.0930 N.pl3  29  ARG29       0.1354
     54  NH2       29.3230   16.1340    1.8440 N.pl3  29  ARG29       0.1354
     55  N         25.2710    9.3580    3.6480 N.3    43  GLU43      -0.1231
     56  CA        25.9420    9.7170    2.4200 C.3    43  GLU43       0.1699
     57  C         27.2250   10.4340    2.8060 C.2    43  GLU43       0.2593
     58  O         27.3040   11.0820    3.8430 O.2    43  GLU43      -0.2718
     59  CB        25.0680   10.6510    1.6040 C.3    43  GLU43       0.0402
     60  CG        25.7220   11.1390    0.3480 C.3    43  GLU43       0.1161
     61  CD        24.8870   12.1720   -0.3730 C.2    43  GLU43       0.3649
     62  OE1       23.7250   12.3950    0.0240 O.co2  43  GLU43      -0.2457
     63  OE2       25.3980   12.7790   -1.3370 O.co2  43  GLU43      -0.2457
     64  N         28.2320   10.3110    1.9650 N.am   44  SER44      -0.1938
     65  CA        29.4890   10.9550    2.2170 C.3    44  SER44       0.2055
     66  C         30.0860   11.3720    0.8770 C.2    44  SER44       0.2643
     67  O         29.8120   10.7720   -0.1640 O.2    44  SER44      -0.2714
     68  CB        30.4150    9.9810    2.9400 C.3    44  SER44       0.2130
     69  OG        31.7050   10.5380    3.1250 O.3    44  SER44      -0.2179
     70  N         30.8790   12.4290    0.9170 N.am   45  ARG45      -0.1963
     71  CA        31.5630   12.9440   -0.2560 C.3    45  ARG45       0.1729
     72  C         33.0390   13.1290    0.1040 C.2    45  ARG45       0.2616
     73  O         33.7400   13.9290   -0.5190 O.2    45  ARG45      -0.2715
     74  CB        30.9510   14.2740   -0.6950 C.3    45  ARG45       0.0348
     75  CG        29.6320   14.1250   -1.3690 C.3    45  ARG45       0.0492
     76  CD        29.8370   13.4210   -2.6950 C.3    45  ARG45       0.2205
     77  NE        28.5750   13.0740   -3.3420 N.pl3  45  ARG45      -0.0865
     78  CZ        27.9020   11.9440   -3.1320 C.cat  45  ARG45       0.5346
     79  NH1       28.3610   11.0290   -2.2820 N.pl3  45  ARG45       0.1354
     80  NH2       26.7680   11.7260   -3.7920 N.pl3  45  ARG45       0.1354
     81  N         33.4910   12.4130    1.1370 N.am   46  LYS46      -0.1963
     82  CA        34.8860   12.4800    1.5760 C.3    46  LYS46       0.1728
     83  C         35.8090   11.9340    0.4960 C.2    46  LYS46       0.2616
     84  O         35.4420   11.0150   -0.2500 O.2    46  LYS46      -0.2715
     85  CB        35.1040   11.7000    2.8770 C.3    46  LYS46       0.0311
     86  CG        34.6870   12.4620    4.1030 C.3    46  LYS46       0.0038
     87  CD        35.0260   11.7100    5.3610 C.3    46  LYS46       0.0206
     88  CE        34.6380   12.5030    6.5930 C.3    46  LYS46       0.1093
     89  NZ        33.1720   12.4620    6.8550 N.3    46  LYS46      -0.1314
     90  N         36.9970   12.5280    0.4140 N.am   47  VAL47      -0.1977
     91  CA        38.0260   12.1420   -0.5490 C.3    47  VAL47       0.1596
     92  C         38.2510   10.6240   -0.5480 C.2    47  VAL47       0.2287
     93  O         38.1460    9.9690   -1.5890 O.2    47  VAL47      -0.2864
     94  CB        39.3740   12.8590   -0.2290 C.3    47  VAL47       0.0276
     95  CG1       40.4920   12.3620   -1.1330 C.3    47  VAL47       0.0022
     96  CG2       39.2230   14.3470   -0.3880 C.3    47  VAL47       0.0022
     97  N         32.5100   13.3270   15.4690 N.3    95  ASN95      -0.1225
     98  CA        31.9700   14.6690   15.6510 C.3    95  ASN95       0.1785
     99  C         30.4650   14.6740   15.6050 C.2    95  ASN95       0.2598
    100  O         29.8600   13.9920   14.7810 O.2    95  ASN95      -0.2718
    101  CB        32.4250   15.6030   14.5470 C.3    95  ASN95       0.1169
    102  CG        33.7990   16.1300   14.7710 C.2    95  ASN95       0.2627
    103  OD1       34.7190   15.8090   14.0230 O.2    95  ASN95      -0.2716
    104  ND2       33.9600   16.9530   15.7980 N.am   95  ASN95      -0.0877
    105  N         29.8820   15.5180   16.4380 N.am   96  THR96      -0.1939
    106  CA        28.4470   15.7040   16.5230 C.3    96  THR96       0.2028
    107  C         27.9000   16.1650   15.1600 C.2    96  THR96       0.2642
    108  O         28.5470   16.9520   14.4530 O.2    96  THR96      -0.2714
    109  CB        28.1350   16.7350   17.6400 C.3    96  THR96       0.1808
    110  OG1       28.5680   16.1950   18.8940 O.3    96  THR96      -0.2208
    111  CG2       26.6390   17.0430   17.7310 C.3    96  THR96       0.0379
    112  N         26.7950   15.5460   14.7470 N.am   97  LEU97      -0.1977
    113  CA        26.1200   15.8800   13.5040 C.3    97  LEU97       0.1596
    114  C         25.0490   16.9210   13.7930 C.2    97  LEU97       0.2287
    115  O         24.1410   16.6600   14.5800 O.2    97  LEU97      -0.2864
    116  CB        25.4260   14.6540   12.9370 C.3    97  LEU97       0.0297
    117  CG        26.2920   13.6450   12.2200 C.3    97  LEU97       0.0022
    118  CD1       25.4230   12.5090   11.6980 C.3    97  LEU97       0.0001
    119  CD2       27.0190   14.3670   11.1080 C.3    97  LEU97       0.0001
@<TRIPOS>BOND
     1    80    78    1
     2    77    78    2
     3    77    76    1
     4    78    79    1
     5    76    75    1
     6    93    92    2
     7    75    74    1
     8    63    61   ar
     9    95    94    1
    10    74    71    1
    11    91    92    1
    12    91    94    1
    13    91    90    1
    14    73    72    2
    15    42    41    1
    16    96    94    1
    17    61    62   ar
    18    61    60    1
    19    71    72    1
    20    71    70    1
    21    84    83    2
    22    67    66    2
    23    43    41    1
    24    41    40    2
    25    72    81   am
    26    60    59    1
    27    90    83   am
    28    83    82    1
    29    40    39    1
    30    39    38    1
    31    66    70   am
    32    66    65    1
    33    53    52    1
    34    81    82    1
    35    38    37    1
    36    82    85    1
    37    59    56    1
    38    37    34    1
    39    54    52    1
    40    52    51    2
    41    64    65    1
    42    64    57   am
    43    65    68    1
    44    34    35    1
    45    34    33    1
    46    56    57    1
    47    56    55    1
    48    35    36    2
    49    44    45    1
    50    51    50    1
    51    57    58    2
    52    85    86    1
    53    45    46    1
    54    45    48    1
    55    68    69    1
    56    50    49    1
    57    27    25   ar
    58    27    28   ar
    59    46    47    2
    60    25    24   ar
    61    30    28   ar
    62    30    32   ar
    63    28    26   ar
    64    49    48    1
    65    86    87    1
    66    32    31   ar
    67    24    26   ar
    68    24    23    1
    69    20    19    1
    70    20    23    1
    71    20    21    1
    72    26    29   ar
    73    31    29   ar
    74    21    22    2
    75    87    88    1
    76     1     2    1
    77     4     3    2
    78    88    89    1
    79     5     2    1
    80     5     6    1
    81     2     3    1
    82     9     8    1
    83     8     7    1
    84     7     6    1
    85    15    14    1
    86    15    16    1
    87    14    11    1
    88    10    11    1
    89    11    12    1
    90    12    13    2
    91    16    17    1
    92    17    18    1
    93   119   117    1
    94   118   117    1
    95   117   116    1
    96   116   113    1
    97   113   114    1
    98   113   112    1
    99   114   115    2
   100   103   102    2
   101   108   107    2
   102   101   102    1
   103   101    98    1
   104   112   107   am
   105   102   104   am
   106   100    99    2
   107   107   106    1
   108    97    98    1
   109    99    98    1
   110    99   105   am
   111   105   106    1
   112   106   109    1
   113   109   111    1
   114   109   110    1
