@<TRIPOS>MOLECULE
tmp/1mauA02.pdb
 89 85 0 0 0
SMALL
GASTEIGER

@<TRIPOS>ATOM
      1  N         50.1820   15.3760   35.4940 N.3    11  SER11      -0.1202
      2  CA        48.7520   15.5330   35.2700 C.3    11  SER11       0.2020
      3  C         48.4750   15.6580   33.7670 C.2    11  SER11       0.2619
      4  O         47.3770   15.9740   33.3600 O.2    11  SER11      -0.2717
      5  CB        48.2330   16.7740   36.0090 C.3    11  SER11       0.2103
      6  OG        49.0500   17.9020   35.7430 O.3    11  SER11      -0.2182
      7  N         49.4980   15.4660   32.9480 N.am   12  GLY12      -0.1956
      8  CA        49.3450   15.5860   31.5030 C.3    12  GLY12       0.1869
      9  C         50.7490   15.6030   30.9390 C.2    12  GLY12       0.2309
     10  O         51.7010   15.3040   31.6570 O.2    12  GLY12      -0.2863
     11  N         43.1490   16.2310   41.6860 N.3    47  VAL47      -0.1231
     12  CA        41.9900   16.2480   40.7880 C.3    47  VAL47       0.1692
     13  C         41.9520   14.8890   40.0890 C.2    47  VAL47       0.2592
     14  O         42.9340   14.1610   40.1210 O.2    47  VAL47      -0.2718
     15  CB        41.9840   17.4260   39.7670 C.3    47  VAL47       0.0266
     16  CG1       41.9380   18.7580   40.4920 C.3    47  VAL47       0.0020
     17  CG2       43.1840   17.3620   38.8170 C.3    47  VAL47       0.0020
     18  N         40.8100   14.5170   39.5180 N.am   48  TRP48      -0.1962
     19  CA        40.6970   13.2100   38.8550 C.3    48  TRP48       0.1771
     20  C         41.7690   12.9930   37.7920 C.2    48  TRP48       0.2620
     21  O         42.0550   13.8850   37.0040 O.2    48  TRP48      -0.2715
     22  CB        39.3130   13.0020   38.2200 C.3    48  TRP48       0.0590
     23  CG        39.2790   11.8820   37.1850 C.ar   48  TRP48       0.0006
     24  CD1       39.3470   11.9960   35.8260 C.ar   48  TRP48       0.0946
     25  CD2       39.2720   10.4670   37.4510 C.ar   48  TRP48       0.0152
     26  NE1       39.2620   10.7710   35.2310 N.ar   48  TRP48      -0.2442
     27  CE2       39.2200    9.8050   36.2090 C.ar   48  TRP48       0.0810
     28  CE3       39.3110    9.6970   38.6180 C.ar   48  TRP48       0.0012
     29  CZ2       39.2070    8.4160   36.0990 C.ar   48  TRP48       0.0191
     30  CZ3       39.1350    8.3180   38.5130 C.ar   48  TRP48       0.0001
     31  CH2       39.0690    7.6910   37.2620 C.ar   48  TRP48       0.0015
     32  N         42.3390   11.7890   37.7890 N.am   49  GLN49      -0.1963
     33  CA        43.2890   11.3350   36.7800 C.3    49  GLN49       0.1733
     34  C         42.9210    9.8840   36.4780 C.2    49  GLN49       0.2616
     35  O         42.7760    9.0660   37.3950 O.2    49  GLN49      -0.2715
     36  CB        44.7390   11.3540   37.2970 C.3    49  GLN49       0.0408
     37  CG        45.1960   12.6420   37.9540 C.3    49  GLN49       0.0908
     38  CD        45.3050   13.7860   36.9790 C.2    49  GLN49       0.2608
     39  OE1       45.5690   13.5850   35.8080 O.2    49  GLN49      -0.2717
     40  NE2       45.1760   14.9940   37.4740 N.am   49  GLN49      -0.0878
     41  N         42.7600    9.5570   35.2030 N.am   50  ASP50      -0.1971
     42  CA        42.4940    8.1730   34.8490 C.3    50  ASP50       0.1709
     43  C         43.7650    7.4080   35.2400 C.2    50  ASP50       0.2293
     44  O         44.8730    7.8660   34.9810 O.2    50  ASP50      -0.2864
     45  CB        42.2020    8.0370   33.3520 C.3    50  ASP50       0.1436
     46  CG        42.2130    6.5980   32.8920 C.2    50  ASP50       0.3671
     47  OD1       41.2750    5.8660   33.2470 O.co2  50  ASP50      -0.2456
     48  OD2       43.2020    6.1720   32.2640 O.co2  50  ASP50      -0.2456
     49  N         46.1450    6.5640   32.4350 N.3    53  GLU53      -0.1245
     50  CA        46.7500    7.8030   31.9620 C.3    53  GLU53       0.1567
     51  C         47.7870    8.3530   32.9440 C.2    53  GLU53       0.2260
     52  O         48.7910    8.9120   32.5270 O.2    53  GLU53      -0.2867
     53  CB        45.6870    8.8620   31.6980 C.3    53  GLU53       0.0388
     54  CG        45.3480    9.0260   30.2290 C.3    53  GLU53       0.1160
     55  CD        44.0650    9.7930   30.0240 C.2    53  GLU53       0.3649
     56  OE1       43.1550    9.2600   29.3540 O.co2  53  GLU53      -0.2457
     57  OE2       43.9400   10.9020   30.5880 O.co2  53  GLU53      -0.2457
     58  N         51.6410    8.9550   32.2070 N.3    57  ASN57      -0.1240
     59  CA        52.1310   10.3310   32.2810 C.3    57  ASN57       0.1653
     60  C         53.3440   10.4500   33.2040 C.2    57  ASN57       0.2266
     61  O         54.2110   11.2920   33.0040 O.2    57  ASN57      -0.2867
     62  CB        51.0210   11.2970   32.7070 C.3    57  ASN57       0.1155
     63  CG        50.1580   11.7630   31.5300 C.2    57  ASN57       0.2627
     64  OD1       50.6580   12.0260   30.4390 O.2    57  ASN57      -0.2716
     65  ND2       48.8580   11.8970   31.7700 N.am   57  ASN57      -0.0877
     66  N         41.2460   27.0540   40.9580 N.3   111  LYS111     -0.1245
     67  CA        40.9250   25.6740   40.6060 C.3   111  LYS111      0.1561
     68  C         39.6310   25.1620   41.2330 C.2   111  LYS111      0.2260
     69  O         39.0390   24.1980   40.7500 O.2   111  LYS111     -0.2867
     70  CB        42.0940   24.7370   40.9220 C.3   111  LYS111      0.0271
     71  CG        43.2650   24.8460   39.9410 C.3   111  LYS111      0.0035
     72  CD        44.3820   23.8640   40.2780 C.3   111  LYS111      0.0206
     73  CE        45.4620   23.8540   39.2010 C.3   111  LYS111      0.1093
     74  NZ        46.2650   22.5900   39.2100 N.3   111  LYS111     -0.1314
     75  N         48.9200   22.6370   31.3740 N.3   195  LYS195     -0.1231
     76  CA        48.8690   21.3290   30.7140 C.3   195  LYS195      0.1693
     77  C         47.5550   20.5730   30.9070 C.2   195  LYS195      0.2592
     78  O         47.2690   19.6260   30.1820 O.2   195  LYS195     -0.2718
     79  CB        50.0660   20.4620   31.1140 C.3   195  LYS195      0.0285
     80  CG        49.8390   19.6030   32.3670 C.3   195  LYS195      0.0035
     81  CD        51.0730   18.7540   32.6800 C.3   195  LYS195      0.0206
     82  CE        52.0650   19.4950   33.5850 C.3   195  LYS195      0.1093
     83  NZ        51.6890   19.4070   35.0180 N.3   195  LYS195     -0.1314
     84  N         46.7530   20.9950   31.8760 N.am  196  SER196     -0.1952
     85  CA        45.4700   20.3460   32.1290 C.3   196  SER196      0.1924
     86  C         44.2740   21.1620   31.6200 C.2   196  SER196      0.2314
     87  O         43.1290   20.8570   31.9380 O.2   196  SER196     -0.2863
     88  CB        45.2990   20.0500   33.6220 C.3   196  SER196      0.2116
     89  OG        45.0850   21.2600   34.3290 O.3   196  SER196     -0.2180
@<TRIPOS>BOND
     1    56    55   ar
     2    55    54    1
     3    55    57   ar
     4    78    77    2
     5    54    53    1
     6    64    63    2
     7    76    77    1
     8    76    79    1
     9    76    75    1
    10    77    84   am
    11     9     8    1
    12     9    10    2
    13    79    80    1
    14     8     7    1
    15    63    65   am
    16    63    62    1
    17    86    87    2
    18    86    85    1
    19    53    50    1
    20    84    85    1
    21    50    49    1
    22    50    51    1
    23    85    88    1
    24    58    59    1
    25    48    46   ar
    26    59    62    1
    27    59    60    1
    28    80    81    1
    29    52    51    2
    30    81    82    1
    31    46    47   ar
    32    46    45    1
    33     7     3   am
    34    61    60    2
    35    45    42    1
    36     4     3    2
    37    82    83    1
    38    88    89    1
    39     3     2    1
    40    42    41    1
    41    42    43    1
    42    44    43    2
    43    41    34   am
    44    26    24   ar
    45    26    27   ar
    46     2     1    1
    47     2     5    1
    48     6     5    1
    49    39    38    2
    50    24    23   ar
    51    29    27   ar
    52    29    31   ar
    53    27    25   ar
    54    34    33    1
    55    34    35    2
    56    33    36    1
    57    33    32    1
    58    38    40   am
    59    38    37    1
    60    21    20    2
    61    23    25   ar
    62    23    22    1
    63    31    30   ar
    64    36    37    1
    65    25    28   ar
    66    32    20   am
    67    20    19    1
    68    22    19    1
    69    30    28   ar
    70    17    15    1
    71    19    18    1
    72    73    74    1
    73    73    72    1
    74    18    13   am
    75    15    16    1
    76    15    12    1
    77    71    72    1
    78    71    70    1
    79    13    14    2
    80    13    12    1
    81    67    70    1
    82    67    66    1
    83    67    68    1
    84    69    68    2
    85    12    11    1
