@<TRIPOS>MOLECULE
tmp/1mauA01.pdb
 140 132 0 0 0
SMALL
GASTEIGER

@<TRIPOS>ATOM
      1  N         65.4290   22.1850   44.7370 N.3     5  PHE5       -0.1227
      2  CA        64.3070   21.2490   44.6000 C.3     5  PHE5        0.1736
      3  C         63.2470   21.8720   43.6940 C.2     5  PHE5        0.2596
      4  O         62.9850   23.0660   43.7690 O.2     5  PHE5       -0.2718
      5  CB        63.6570   20.8980   45.9540 C.3     5  PHE5        0.0547
      6  CG        62.6760   19.7510   45.8720 C.ar    5  PHE5       -0.0202
      7  CD1       63.0480   18.4680   46.2650 C.ar    5  PHE5       -0.0042
      8  CD2       61.4040   19.9420   45.3590 C.ar    5  PHE5       -0.0042
      9  CE1       62.1660   17.3970   46.1510 C.ar    5  PHE5       -0.0003
     10  CE2       60.5140   18.8730   45.2310 C.ar    5  PHE5       -0.0003
     11  CZ        60.8980   17.6000   45.6280 C.ar    5  PHE5       -0.0000
     12  N         62.6070   21.0530   42.8710 N.am    6  SER6       -0.1938
     13  CA        61.5080   21.5210   42.0310 C.3     6  SER6        0.2055
     14  C         60.7250   20.3300   41.5110 C.2     6  SER6        0.2644
     15  O         61.2970   19.2840   41.2180 O.2     6  SER6       -0.2714
     16  CB        62.0030   22.4030   40.8800 C.3     6  SER6        0.2130
     17  OG        61.1020   23.4790   40.6460 O.3     6  SER6       -0.2179
     18  N         59.4040   20.4600   41.4850 N.am    7  GLY7       -0.1939
     19  CA        58.5590   19.3560   41.0480 C.3     7  GLY7        0.2014
     20  C         57.5860   19.7660   39.9430 C.2     7  GLY7        0.2639
     21  O         57.2490   20.9440   39.8000 O.2     7  GLY7       -0.2714
     22  N         57.1830   18.7850   39.1380 N.am    8  ILE8       -0.1963
     23  CA        56.2320   18.9960   38.0390 C.3     8  ILE8        0.1727
     24  C         55.2170   17.8610   38.1240 C.2     8  ILE8        0.2616
     25  O         55.5920   16.7190   38.4180 O.2     8  ILE8       -0.2715
     26  CB        56.9560   18.9620   36.6540 C.3     8  ILE8        0.0290
     27  CG1       57.8730   20.1840   36.4960 C.3     8  ILE8        0.0022
     28  CG2       55.9490   18.9330   35.4980 C.3     8  ILE8        0.0023
     29  CD1       58.8380   20.0900   35.3090 C.3     8  ILE8        0.0001
     30  N         53.9290   18.1720   37.9860 N.am    9  GLN9       -0.1977
     31  CA        52.9180   17.1220   38.0950 C.3     9  GLN9        0.1601
     32  C         52.7190   16.3650   36.8040 C.2     9  GLN9        0.2287
     33  O         52.6040   16.9680   35.7330 O.2     9  GLN9       -0.2864
     34  CB        51.5500   17.6430   38.5240 C.3     9  GLN9        0.0394
     35  CG        51.5090   18.8200   39.4700 C.3     9  GLN9        0.0908
     36  CD        50.0750   19.2800   39.6790 C.2     9  GLN9        0.2608
     37  OE1       49.2240   18.4960   40.1020 O.2     9  GLN9       -0.2717
     38  NE2       49.7670   20.4780   39.2120 N.am    9  GLN9       -0.0878
     39  N         55.7910   14.8530   40.7360 N.3    40  VAL40      -0.1245
     40  CA        54.8430   14.8930   41.8360 C.3    40  VAL40       0.1561
     41  C         53.4690   14.2600   41.5680 C.2    40  VAL40       0.2260
     42  O         52.4830   14.9680   41.3640 O.2    40  VAL40      -0.2867
     43  CB        54.7530   16.3160   42.4840 C.3    40  VAL40       0.0252
     44  CG1       56.0770   16.6740   43.1340 C.3    40  VAL40       0.0019
     45  CG2       54.4170   17.3760   41.4400 C.3    40  VAL40       0.0019
     46  N         50.5410   15.0840   43.9840 N.3    43  HIS43      -0.1241
     47  CA        49.8950   16.3760   43.7610 C.3    43  HIS43       0.1621
     48  C         48.9050   16.2340   42.6020 C.2    43  HIS43       0.2264
     49  O         47.8690   16.9020   42.5730 O.2    43  HIS43      -0.2867
     50  CB        50.9360   17.4670   43.4070 C.3    43  HIS43       0.0745
     51  CG        51.5580   18.1210   44.6010 C.ar   43  HIS43       0.0817
     52  ND1       50.8690   18.9940   45.4170 N.ar   43  HIS43      -0.2268
     53  CD2       52.7850   17.9760   45.1570 C.ar   43  HIS43       0.1154
     54  CE1       51.6590   19.3870   46.4020 C.ar   43  HIS43       0.1986
     55  NE2       52.8230   18.7750   46.2700 N.ar   43  HIS43      -0.2212
     56  N         45.5660   29.7710   43.8610 N.3   107  GLN107     -0.1245
     57  CA        45.4500   28.5380   43.0760 C.3   107  GLN107      0.1566
     58  C         44.2080   27.7570   43.4830 C.2   107  GLN107      0.2260
     59  O         43.5110   27.2070   42.6360 O.2   107  GLN107     -0.2867
     60  CB        46.6970   27.6530   43.2300 C.3   107  GLN107      0.0367
     61  CG        46.7470   26.4640   42.2570 C.3   107  GLN107      0.0905
     62  CD        47.9260   25.5240   42.5080 C.2   107  GLN107      0.2608
     63  OE1       48.9910   25.6720   41.9100 O.2   107  GLN107     -0.2717
     64  NE2       47.7150   24.5170   43.3570 N.am  107  GLN107     -0.0878
     65  N         41.2460   27.0540   40.9580 N.3   111  LYS111     -0.1245
     66  CA        40.9250   25.6740   40.6060 C.3   111  LYS111      0.1561
     67  C         39.6310   25.1620   41.2330 C.2   111  LYS111      0.2260
     68  O         39.0390   24.1980   40.7500 O.2   111  LYS111     -0.2867
     69  CB        42.0940   24.7370   40.9220 C.3   111  LYS111      0.0271
     70  CG        43.2650   24.8460   39.9410 C.3   111  LYS111      0.0035
     71  CD        44.3820   23.8640   40.2780 C.3   111  LYS111      0.0206
     72  CE        45.4620   23.8540   39.2010 C.3   111  LYS111      0.1093
     73  NZ        46.2650   22.5900   39.2100 N.3   111  LYS111     -0.1314
     74  N         46.7540   20.8790   49.1890 N.3   125  TYR125     -0.1241
     75  CA        47.8760   20.8220   48.2590 C.3   125  TYR125      0.1605
     76  C         49.1430   21.5020   48.8270 C.2   125  TYR125      0.2264
     77  O         50.2430   20.9530   48.7860 O.2   125  TYR125     -0.2867
     78  CB        47.4190   21.5480   46.9730 C.3   125  TYR125      0.0534
     79  CG        48.3800   21.5290   45.8160 C.ar  125  TYR125     -0.0201
     80  CD1       49.5280   22.3020   45.8410 C.ar  125  TYR125     -0.0009
     81  CD2       48.0760   20.8330   44.6430 C.ar  125  TYR125     -0.0009
     82  CE1       50.4050   22.2960   44.7840 C.ar  125  TYR125      0.0417
     83  CE2       48.9420   20.8410   43.5650 C.ar  125  TYR125      0.0417
     84  CZ        50.1010   21.5620   43.6590 C.ar  125  TYR125      0.1957
     85  OH        50.9600   21.5790   42.6170 O.3   125  TYR125     -0.2866
     86  N         53.3790   20.3720   49.2240 N.3   129  MET129     -0.1245
     87  CA        54.4000   21.0570   48.4370 C.3   129  MET129      0.1570
     88  C         55.4900   21.5920   49.3700 C.2   129  MET129      0.2261
     89  O         56.6870   21.5560   49.0470 O.2   129  MET129     -0.2867
     90  CB        53.7800   22.2090   47.6330 C.3   129  MET129      0.0387
     91  CG        54.8120   23.1930   47.0800 C.3   129  MET129      0.0595
     92  SD        54.1500   24.3480   45.8380 S.3   129  MET129     -0.1393
     93  CE        55.7000   25.1070   45.2740 C.3   129  MET129      0.0692
     94  N         57.6310   18.6730   50.2450 N.3   132  ASP132     -0.1225
     95  CA        58.5140   18.3570   49.1190 C.3   132  ASP132      0.1805
     96  C         59.8050   19.1740   49.2090 C.2   132  ASP132      0.2597
     97  O         60.8990   18.6430   49.0800 O.2   132  ASP132     -0.2718
     98  CB        57.8310   18.6560   47.7690 C.3   132  ASP132      0.1424
     99  CG        56.5830   17.8080   47.5210 C.2   132  ASP132      0.3668
    100  OD1       55.6980   18.2640   46.7630 O.co2 132  ASP132     -0.2456
    101  OD2       56.4850   16.6800   48.0420 O.co2 132  ASP132     -0.2456
    102  N         59.6580   20.4670   49.4490 N.am  133  ILE133     -0.1980
    103  CA        60.7750   21.3970   49.5000 C.3   133  ILE133      0.1595
    104  C         61.6320   21.2600   50.7450 C.2   133  ILE133      0.2287
    105  O         62.8540   21.1280   50.6640 O.2   133  ILE133     -0.2864
    106  CB        60.2490   22.8530   49.4190 C.3   133  ILE133      0.0276
    107  CG1       59.6500   23.1170   48.0370 C.3   133  ILE133      0.0022
    108  CG2       61.3490   23.8760   49.7870 C.3   133  ILE133      0.0022
    109  CD1       58.7770   24.3410   47.9740 C.3   133  ILE133      0.0001
    110  N         64.3520   27.3540   44.9750 N.3   141  VAL141     -0.1245
    111  CA        63.2170   26.6860   44.3360 C.3   141  VAL141      0.1561
    112  C         62.8930   27.3760   43.0130 C.2   141  VAL141      0.2260
    113  O         62.2320   28.4130   43.0010 O.2   141  VAL141     -0.2867
    114  CB        61.9380   26.7080   45.2370 C.3   141  VAL141      0.0252
    115  CG1       60.7980   25.8900   44.5880 C.3   141  VAL141      0.0019
    116  CG2       62.2390   26.1720   46.6310 C.3   141  VAL141      0.0019
    117  N         61.0090   28.1180   39.7790 N.3   143  VAL143     -0.1245
    118  CA        59.6360   28.1150   39.2490 C.3   143  VAL143      0.1561
    119  C         59.5430   29.4920   38.5470 C.2   143  VAL143      0.2260
    120  O         60.5370   30.1880   38.5030 O.2   143  VAL143     -0.2867
    121  CB        58.5900   27.9860   40.3980 C.3   143  VAL143      0.0252
    122  CG1       58.7380   26.6250   41.1000 C.3   143  VAL143      0.0019
    123  CG2       58.7570   29.1090   41.4150 C.3   143  VAL143      0.0019
    124  N         53.5450   31.4960   38.9560 N.3   146  ASP146     -0.1225
    125  CA        52.2760   31.1210   39.5600 C.3   146  ASP146      0.1805
    126  C         52.5210   30.3600   40.8590 C.2   146  ASP146      0.2597
    127  O         51.5850   30.0620   41.6030 O.2   146  ASP146     -0.2718
    128  CB        51.5020   30.2140   38.6000 C.3   146  ASP146      0.1424
    129  CG        52.2860   28.9700   38.2230 C.2   146  ASP146      0.3668
    130  OD1       51.9100   27.8800   38.6790 O.co2 146  ASP146     -0.2456
    131  OD2       53.3090   29.0860   37.5140 O.co2 146  ASP146     -0.2456
    132  N         53.7730   30.0190   41.1280 N.am  147  GLN147     -0.1979
    133  CA        54.0780   29.2600   42.3360 C.3   147  GLN147      0.1601
    134  C         54.6730   30.1050   43.4680 C.2   147  GLN147      0.2287
    135  O         55.0310   29.5980   44.5340 O.2   147  GLN147     -0.2864
    136  CB        54.9570   28.0540   41.9940 C.3   147  GLN147      0.0394
    137  CG        54.1660   26.9140   41.3360 C.3   147  GLN147      0.0908
    138  CD        52.9930   26.4690   42.1740 C.2   147  GLN147      0.2608
    139  OE1       53.1730   25.9790   43.2840 O.2   147  GLN147     -0.2717
    140  NE2       51.7710   26.6800   41.6680 N.am  147  GLN147     -0.0878
@<TRIPOS>BOND
     1    29    27    1
     2    28    26    1
     3    33    32    2
     4    27    26    1
     5    26    23    1
     6    32    31    1
     7   131   129   ar
     8    30    31    1
     9    30    24   am
    10    23    24    1
    11    23    22    1
    12    31    34    1
    13    24    25    2
    14   129   128    1
    15   129   130   ar
    16   120   119    2
    17    34    35    1
    18   119   118    1
    19   128   125    1
    20   124   125    1
    21    22    20   am
    22    72    73    1
    23    72    71    1
    24    38    36   am
    25   118   117    1
    26   118   121    1
    27    35    36    1
    28   125   126    1
    29    36    37    2
    30    21    20    2
    31    70    71    1
    32    70    69    1
    33    20    19    1
    34   121   122    1
    35   121   123    1
    36    66    69    1
    37    66    65    1
    38    66    67    1
    39    17    16    1
    40    39    40    1
    41    68    67    2
    42   126   132   am
    43   126   127    2
    44    16    13    1
    45    19    18    1
    46   132   133    1
    47    15    14    2
    48   137   136    1
    49   137   138    1
    50    42    41    2
    51    45    43    1
    52    18    14   am
    53    14    13    1
    54    41    40    1
    55   140   138   am
    56    40    43    1
    57    63    62    2
    58   136   133    1
    59    13    12    1
    60   138   139    2
    61    61    62    1
    62    61    60    1
    63   133   134    1
    64    43    44    1
    65    62    64   am
    66    49    48    2
    67    48    47    1
    68    85    84    1
    69    59    58    2
    70    12     3   am
    71   113   112    2
    72   112   111    1
    73    57    60    1
    74    57    58    1
    75    57    56    1
    76    50    47    1
    77    50    51    1
    78   134   135    2
    79    83    84   ar
    80    83    81   ar
    81    84    82   ar
    82     3     4    2
    83     3     2    1
    84    47    46    1
    85   111   110    1
    86   111   114    1
    87   115   114    1
    88     2     1    1
    89     2     5    1
    90    51    53   ar
    91    51    52   ar
    92    81    79   ar
    93    82    80   ar
    94    53    55   ar
    95    10     8   ar
    96    10    11   ar
    97   114   116    1
    98    93    92    1
    99     8     6   ar
   100    52    54   ar
   101    11     9   ar
   102    79    80   ar
   103    79    78    1
   104    92    91    1
   105     6     5    1
   106     6     7   ar
   107     9     7   ar
   108    55    54   ar
   109   100    99   ar
   110    78    75    1
   111    91    90    1
   112    99    98    1
   113    99   101   ar
   114    90    87    1
   115    98    95    1
   116   109   107    1
   117   107   106    1
   118    75    76    1
   119    75    74    1
   120    87    86    1
   121    87    88    1
   122    77    76    2
   123    89    88    2
   124    97    96    2
   125    95    96    1
   126    95    94    1
   127    96   102   am
   128   106   103    1
   129   106   108    1
   130   102   103    1
   131   103   104    1
   132   105   104    2
