@<TRIPOS>MOLECULE
tmp/1mauA00.pdb
 203 193 0 0 0
SMALL
GASTEIGER

@<TRIPOS>ATOM
      1  N         62.6070   21.0530   42.8710 N.3     6  SER6       -0.1202
      2  CA        61.5080   21.5210   42.0310 C.3     6  SER6        0.2020
      3  C         60.7250   20.3300   41.5110 C.2     6  SER6        0.2619
      4  O         61.2970   19.2840   41.2180 O.2     6  SER6       -0.2717
      5  CB        62.0030   22.4030   40.8800 C.3     6  SER6        0.2103
      6  OG        61.1020   23.4790   40.6460 O.3     6  SER6       -0.2182
      7  N         59.4040   20.4600   41.4850 N.am    7  GLY7       -0.1942
      8  CA        58.5590   19.3560   41.0480 C.3     7  GLY7        0.2014
      9  C         57.5860   19.7660   39.9430 C.2     7  GLY7        0.2639
     10  O         57.2490   20.9440   39.8000 O.2     7  GLY7       -0.2714
     11  N         57.1830   18.7850   39.1380 N.am    8  ILE8       -0.1963
     12  CA        56.2320   18.9960   38.0390 C.3     8  ILE8        0.1727
     13  C         55.2170   17.8610   38.1240 C.2     8  ILE8        0.2616
     14  O         55.5920   16.7190   38.4180 O.2     8  ILE8       -0.2715
     15  CB        56.9560   18.9620   36.6540 C.3     8  ILE8        0.0290
     16  CG1       57.8730   20.1840   36.4960 C.3     8  ILE8        0.0022
     17  CG2       55.9490   18.9330   35.4980 C.3     8  ILE8        0.0023
     18  CD1       58.8380   20.0900   35.3090 C.3     8  ILE8        0.0001
     19  N         53.9290   18.1720   37.9860 N.am    9  GLN9       -0.1977
     20  CA        52.9180   17.1220   38.0950 C.3     9  GLN9        0.1601
     21  C         52.7190   16.3650   36.8040 C.2     9  GLN9        0.2287
     22  O         52.6040   16.9680   35.7330 O.2     9  GLN9       -0.2864
     23  CB        51.5500   17.6430   38.5240 C.3     9  GLN9        0.0394
     24  CG        51.5090   18.8200   39.4700 C.3     9  GLN9        0.0908
     25  CD        50.0750   19.2800   39.6790 C.2     9  GLN9        0.2608
     26  OE1       49.2240   18.4960   40.1020 O.2     9  GLN9       -0.2717
     27  NE2       49.7670   20.4780   39.2120 N.am    9  GLN9       -0.0878
     28  N         50.1820   15.3760   35.4940 N.3    11  SER11      -0.1217
     29  CA        48.7520   15.5330   35.2700 C.3    11  SER11       0.1889
     30  C         48.4750   15.6580   33.7670 C.2    11  SER11       0.2288
     31  O         47.3770   15.9740   33.3600 O.2    11  SER11      -0.2866
     32  CB        48.2330   16.7740   36.0090 C.3    11  SER11       0.2089
     33  OG        49.0500   17.9020   35.7430 O.3    11  SER11      -0.2183
     34  N         54.1310   21.2170   28.9360 N.3    15  THR15      -0.1218
     35  CA        53.9880   22.1630   27.8400 C.3    15  THR15       0.1862
     36  C         55.1870   23.0840   27.6800 C.2    15  THR15       0.2287
     37  O         56.0810   23.1090   28.5260 O.2    15  THR15      -0.2866
     38  CB        52.7640   23.0590   28.0830 C.3    15  THR15       0.1770
     39  OG1       53.0980   24.0540   29.0590 O.3    15  THR15      -0.2211
     40  CG2       51.5960   22.2320   28.5900 C.3    15  THR15       0.0375
     41  N         55.1770   26.0050   28.1740 N.3    17  GLY17      -0.1210
     42  CA        55.0890   26.9150   29.3140 C.3    17  GLY17       0.1956
     43  C         55.8700   26.3300   30.4890 C.2    17  GLY17       0.2611
     44  O         56.6130   27.0360   31.1680 O.2    17  GLY17      -0.2717
     45  N         55.7400   25.0240   30.6900 N.am   18  ASN18      -0.1974
     46  CA        56.4790   24.3360   31.7500 C.3    18  ASN18       0.1688
     47  C         57.9750   24.3540   31.4600 C.2    18  ASN18       0.2292
     48  O         58.8040   24.4280   32.3760 O.2    18  ASN18      -0.2864
     49  CB        56.0310   22.8850   31.8530 C.3    18  ASN18       0.1181
     50  CG        54.6020   22.7540   32.2880 C.2    18  ASN18       0.2629
     51  OD1       53.8390   22.0060   31.6990 O.2    18  ASN18      -0.2716
     52  ND2       54.2380   23.4490   33.3500 N.am   18  ASN18      -0.0877
     53  N         59.2850   28.2040   31.6380 N.3    21  GLY21      -0.1210
     54  CA        59.2340   28.7050   33.0080 C.3    21  GLY21       0.1956
     55  C         60.0760   27.9480   34.0410 C.2    21  GLY21       0.2611
     56  O         60.4330   28.5070   35.0780 O.2    21  GLY21      -0.2717
     57  N         60.3730   26.6790   33.7820 N.am   22  ALA22      -0.1979
     58  CA        61.0890   25.8720   34.7700 C.3    22  ALA22       0.1597
     59  C         62.1100   24.8620   34.2580 C.2    22  ALA22       0.2287
     60  O         63.2940   24.9710   34.5610 O.2    22  ALA22      -0.2864
     61  CB        60.0900   25.1860   35.7030 C.3    22  ALA22       0.0319
     62  N         66.3210   23.9960   34.8900 N.3    26  PHE26      -0.1241
     63  CA        66.8410   22.8530   35.6460 C.3    26  PHE26       0.1605
     64  C         68.1450   22.3880   35.0040 C.2    26  PHE26       0.2264
     65  O         69.0930   22.0090   35.6880 O.2    26  PHE26      -0.2867
     66  CB        65.8830   21.6620   35.6040 C.3    26  PHE26       0.0534
     67  CG        64.5690   21.9030   36.2760 C.ar   26  PHE26      -0.0203
     68  CD1       64.2850   23.1130   36.8750 C.ar   26  PHE26      -0.0042
     69  CD2       63.6000   20.9070   36.2910 C.ar   26  PHE26      -0.0042
     70  CE1       63.0610   23.3370   37.4690 C.ar   26  PHE26      -0.0003
     71  CE2       62.3750   21.1170   36.9050 C.ar   26  PHE26      -0.0003
     72  CZ        62.1070   22.3340   37.4920 C.ar   26  PHE26      -0.0000
     73  N         45.5660   29.7710   43.8610 N.3   107  GLN107     -0.1245
     74  CA        45.4500   28.5380   43.0760 C.3   107  GLN107      0.1566
     75  C         44.2080   27.7570   43.4830 C.2   107  GLN107      0.2260
     76  O         43.5110   27.2070   42.6360 O.2   107  GLN107     -0.2867
     77  CB        46.6970   27.6530   43.2300 C.3   107  GLN107      0.0367
     78  CG        46.7470   26.4640   42.2570 C.3   107  GLN107      0.0905
     79  CD        47.9260   25.5240   42.5080 C.2   107  GLN107      0.2608
     80  OE1       48.9910   25.6720   41.9100 O.2   107  GLN107     -0.2717
     81  NE2       47.7150   24.5170   43.3570 N.am  107  GLN107     -0.0878
     82  N         41.2460   27.0540   40.9580 N.3   111  LYS111     -0.1245
     83  CA        40.9250   25.6740   40.6060 C.3   111  LYS111      0.1561
     84  C         39.6310   25.1620   41.2330 C.2   111  LYS111      0.2260
     85  O         39.0390   24.1980   40.7500 O.2   111  LYS111     -0.2867
     86  CB        42.0940   24.7370   40.9220 C.3   111  LYS111      0.0271
     87  CG        43.2650   24.8460   39.9410 C.3   111  LYS111      0.0035
     88  CD        44.3820   23.8640   40.2780 C.3   111  LYS111      0.0206
     89  CE        45.4620   23.8540   39.2010 C.3   111  LYS111      0.1093
     90  NZ        46.2650   22.5900   39.2100 N.3   111  LYS111     -0.1314
     91  N         46.7540   20.8790   49.1890 N.3   125  TYR125     -0.1241
     92  CA        47.8760   20.8220   48.2590 C.3   125  TYR125      0.1605
     93  C         49.1430   21.5020   48.8270 C.2   125  TYR125      0.2264
     94  O         50.2430   20.9530   48.7860 O.2   125  TYR125     -0.2867
     95  CB        47.4190   21.5480   46.9730 C.3   125  TYR125      0.0534
     96  CG        48.3800   21.5290   45.8160 C.ar  125  TYR125     -0.0201
     97  CD1       49.5280   22.3020   45.8410 C.ar  125  TYR125     -0.0009
     98  CD2       48.0760   20.8330   44.6430 C.ar  125  TYR125     -0.0009
     99  CE1       50.4050   22.2960   44.7840 C.ar  125  TYR125      0.0417
    100  CE2       48.9420   20.8410   43.5650 C.ar  125  TYR125      0.0417
    101  CZ        50.1010   21.5620   43.6590 C.ar  125  TYR125      0.1957
    102  OH        50.9600   21.5790   42.6170 O.3   125  TYR125     -0.2866
    103  N         63.3880   26.8050   41.9130 N.3   142  PRO142     -0.2102
    104  CA        63.1650   27.3590   40.5700 C.3   142  PRO142      0.1504
    105  C         61.7630   27.0490   40.0310 C.2   142  PRO142      0.2576
    106  O         61.3920   25.8890   39.8850 O.2   142  PRO142     -0.2718
    107  CB        64.2300   26.6600   39.7110 C.3   142  PRO142      0.0282
    108  CG        64.5440   25.3930   40.4410 C.3   142  PRO142      0.0208
    109  CD        64.3550   25.6930   41.9060 C.3   142  PRO142      0.0893
    110  N         61.0090   28.1180   39.7790 N.am  143  VAL143     -0.1966
    111  CA        59.6360   28.1150   39.2490 C.3   143  VAL143      0.1727
    112  C         59.5430   29.4920   38.5470 C.2   143  VAL143      0.2616
    113  O         60.5370   30.1880   38.5030 O.2   143  VAL143     -0.2715
    114  CB        58.5900   27.9860   40.3980 C.3   143  VAL143      0.0290
    115  CG1       58.7380   26.6250   41.1000 C.3   143  VAL143      0.0023
    116  CG2       58.7570   29.1090   41.4150 C.3   143  VAL143      0.0023
    117  N         58.4880   29.8370   37.8200 N.am  144  GLY144     -0.1955
    118  CA        57.1640   29.2970   37.8700 C.3   144  GLY144      0.1869
    119  C         56.4880   30.4210   38.6690 C.2   144  GLY144      0.2309
    120  O         56.3100   30.2840   39.8670 O.2   144  GLY144     -0.2863
    121  N         53.5450   31.4960   38.9560 N.3   146  ASP146     -0.1225
    122  CA        52.2760   31.1210   39.5600 C.3   146  ASP146      0.1805
    123  C         52.5210   30.3600   40.8590 C.2   146  ASP146      0.2597
    124  O         51.5850   30.0620   41.6030 O.2   146  ASP146     -0.2718
    125  CB        51.5020   30.2140   38.6000 C.3   146  ASP146      0.1424
    126  CG        52.2860   28.9700   38.2230 C.2   146  ASP146      0.3668
    127  OD1       51.9100   27.8800   38.6790 O.co2 146  ASP146     -0.2456
    128  OD2       53.3090   29.0860   37.5140 O.co2 146  ASP146     -0.2456
    129  N         53.7730   30.0190   41.1280 N.am  147  GLN147     -0.1979
    130  CA        54.0780   29.2600   42.3360 C.3   147  GLN147      0.1601
    131  C         54.6730   30.1050   43.4680 C.2   147  GLN147      0.2287
    132  O         55.0310   29.5980   44.5340 O.2   147  GLN147     -0.2864
    133  CB        54.9570   28.0540   41.9940 C.3   147  GLN147      0.0394
    134  CG        54.1660   26.9140   41.3360 C.3   147  GLN147      0.0908
    135  CD        52.9930   26.4690   42.1740 C.2   147  GLN147      0.2608
    136  OE1       53.1730   25.9790   43.2840 O.2   147  GLN147     -0.2717
    137  NE2       51.7710   26.6800   41.6680 N.am  147  GLN147     -0.0878
    138  N         59.7410   34.7930   30.7430 N.3   180  GLY180     -0.1210
    139  CA        59.0220   33.5370   30.5710 C.3   180  GLY180      0.1956
    140  C         58.5510   32.8670   31.8580 C.2   180  GLY180      0.2612
    141  O         58.3710   31.6540   31.8890 O.2   180  GLY180     -0.2717
    142  N         58.3480   33.6460   32.9140 N.am  181  ALA181     -0.1965
    143  CA        57.8800   33.0860   34.1770 C.3   181  ALA181      0.1728
    144  C         56.3610   32.8590   34.1360 C.2   181  ALA181      0.2616
    145  O         55.7900   32.2160   35.0140 O.2   181  ALA181     -0.2715
    146  CB        58.2630   33.9850   35.3360 C.3   181  ALA181      0.0334
    147  N         55.7200   33.3560   33.0830 N.am  182  ARG182     -0.1963
    148  CA        54.2790   33.1810   32.9340 C.3   182  ARG182      0.1729
    149  C         53.8520   33.2160   31.4730 C.2   182  ARG182      0.2616
    150  O         53.4210   34.2460   30.9690 O.2   182  ARG182     -0.2715
    151  CB        53.5260   34.2470   33.7250 C.3   182  ARG182      0.0348
    152  CG        52.0070   34.1090   33.6810 C.3   182  ARG182      0.0492
    153  CD        51.3640   34.8580   34.8440 C.3   182  ARG182      0.2205
    154  NE        50.0610   35.4210   34.4990 N.pl3 182  ARG182     -0.0865
    155  CZ        48.9000   34.9540   34.9510 C.cat 182  ARG182      0.5346
    156  NH1       47.7630   35.5340   34.5900 N.pl3 182  ARG182      0.1354
    157  NH2       48.8750   33.9040   35.7620 N.pl3 182  ARG182      0.1354
    158  N         54.0040   32.0860   30.7890 N.am  183  ILE183     -0.1977
    159  CA        53.5890   31.9760   29.3990 C.3   183  ILE183      0.1596
    160  C         52.0610   31.8670   29.4020 C.2   183  ILE183      0.2287
    161  O         51.4920   31.1870   30.2420 O.2   183  ILE183     -0.2864
    162  CB        54.2060   30.7250   28.7460 C.3   183  ILE183      0.0276
    163  CG1       55.7380   30.8020   28.7890 C.3   183  ILE183      0.0022
    164  CG2       53.6890   30.5380   27.3280 C.3   183  ILE183      0.0022
    165  CD1       56.3230   32.0110   28.0860 C.3   183  ILE183      0.0001
    166  N         47.1310   31.8280   32.1190 N.3   192  LYS192     -0.1231
    167  CA        48.3960   31.1800   31.8240 C.3   192  LYS192      0.1693
    168  C         48.1640   29.8410   31.1360 C.2   192  LYS192      0.2592
    169  O         47.0790   29.2630   31.2230 O.2   192  LYS192     -0.2718
    170  CB        49.2520   31.0110   33.0890 C.3   192  LYS192      0.0285
    171  CG        48.8200   29.8580   33.9990 C.3   192  LYS192      0.0035
    172  CD        49.9550   29.3970   34.9130 C.3   192  LYS192      0.0206
    173  CE        49.5950   28.0950   35.6530 C.3   192  LYS192      0.1093
    174  NZ        49.8160   26.8840   34.8040 N.3   192  LYS192     -0.1314
    175  N         49.1740   29.3880   30.4060 N.am  193  MET193     -0.1965
    176  CA        49.1160   28.1050   29.7200 C.3   193  MET193      0.1736
    177  C         49.2320   27.0140   30.7830 C.2   193  MET193      0.2617
    178  O         50.1350   27.0470   31.6080 O.2   193  MET193     -0.2715
    179  CB        50.2910   28.0010   28.7350 C.3   193  MET193      0.0427
    180  CG        50.4200   26.6520   28.0420 C.3   193  MET193      0.0599
    181  SD        51.7400   26.6170   26.8190 S.3   193  MET193     -0.1393
    182  CE        51.2420   27.9620   25.7170 C.3   193  MET193      0.0692
    183  N         48.3200   26.0470   30.7470 N.am  194  SER194     -0.1936
    184  CA        48.2750   24.9590   31.7260 C.3   194  SER194      0.2055
    185  C         48.1200   23.6280   31.0000 C.2   194  SER194      0.2643
    186  O         47.2490   23.4840   30.1500 O.2   194  SER194     -0.2714
    187  CB        47.0580   25.1560   32.6510 C.3   194  SER194      0.2130
    188  OG        47.1970   26.3070   33.4570 O.3   194  SER194     -0.2179
    189  N         48.9200   22.6370   31.3740 N.am  195  LYS195     -0.1963
    190  CA        48.8690   21.3290   30.7140 C.3   195  LYS195      0.1728
    191  C         47.5550   20.5730   30.9070 C.2   195  LYS195      0.2616
    192  O         47.2690   19.6260   30.1820 O.2   195  LYS195     -0.2715
    193  CB        50.0660   20.4620   31.1140 C.3   195  LYS195      0.0311
    194  CG        49.8390   19.6030   32.3670 C.3   195  LYS195      0.0038
    195  CD        51.0730   18.7540   32.6800 C.3   195  LYS195      0.0206
    196  CE        52.0650   19.4950   33.5850 C.3   195  LYS195      0.1093
    197  NZ        51.6890   19.4070   35.0180 N.3   195  LYS195     -0.1314
    198  N         46.7530   20.9950   31.8760 N.am  196  SER196     -0.1950
    199  CA        45.4700   20.3460   32.1290 C.3   196  SER196      0.1924
    200  C         44.2740   21.1620   31.6200 C.2   196  SER196      0.2314
    201  O         43.1290   20.8570   31.9380 O.2   196  SER196     -0.2863
    202  CB        45.2990   20.0500   33.6220 C.3   196  SER196      0.2116
    203  OG        45.0850   21.2600   34.3290 O.3   196  SER196     -0.2180
@<TRIPOS>BOND
     1   182   181    1
     2   181   180    1
     3   164   162    1
     4    36    35    1
     5    36    37    2
     6    35    38    1
     7    35    34    1
     8   180   179    1
     9    38    40    1
    10    38    39    1
    11   165   163    1
    12    41    42    1
    13   179   176    1
    14   162   163    1
    15   162   159    1
    16    42    43    1
    17   159   160    1
    18   159   158    1
    19   160   161    2
    20   176   175    1
    21   176   177    1
    22   186   185    2
    23   192   191    2
    24   175   168   am
    25    43    45   am
    26    43    44    2
    27   139   138    1
    28   139   140    1
    29    45    46    1
    30   190   191    1
    31   190   193    1
    32   190   189    1
    33   183   177   am
    34   183   184    1
    35   177   178    2
    36   158   149   am
    37   191   198   am
    38   150   149    2
    39   185   189   am
    40   185   184    1
    41   193   194    1
    42   168   169    2
    43   168   167    1
    44    47    46    1
    45    47    48    2
    46   149   148    1
    47   200   201    2
    48   200   199    1
    49    53    54    1
    50    51    50    2
    51   184   187    1
    52    46    49    1
    53   167   166    1
    54   167   170    1
    55    49    50    1
    56   140   141    2
    57   140   142   am
    58   198   199    1
    59   199   202    1
    60    50    52   am
    61   194   195    1
    62   187   188    1
    63   195   196    1
    64   142   143    1
    65   148   147    1
    66   148   151    1
    67    54    55    1
    68   147   144   am
    69   170   171    1
    70    31    30    2
    71   196   197    1
    72   202   203    1
    73   152   151    1
    74   152   153    1
    75    30    29    1
    76    57    55   am
    77    57    58    1
    78   171   172    1
    79    55    56    2
    80   144   143    1
    81   144   145    2
    82   143   146    1
    83    59    60    2
    84    59    58    1
    85   154   153    1
    86   154   155    2
    87   156   155    1
    88    58    61    1
    89   174   173    1
    90    62    63    1
    91   172   173    1
    92   155   157    1
    93    64    63    1
    94    64    65    2
    95    29    28    1
    96    29    32    1
    97    18    16    1
    98    17    15    1
    99    66    63    1
   100    66    67    1
   101    22    21    2
   102    33    32    1
   103    67    69   ar
   104    67    68   ar
   105    69    71   ar
   106    16    15    1
   107    15    12    1
   108    21    20    1
   109    68    70   ar
   110    71    72   ar
   111    70    72   ar
   112   128   126   ar
   113   117   118    1
   114   117   112   am
   115   118   119    1
   116    19    20    1
   117    19    13   am
   118    12    13    1
   119    12    11    1
   120    20    23    1
   121    13    14    2
   122   126   125    1
   123   126   127   ar
   124   113   112    2
   125    23    24    1
   126   112   111    1
   127   125   122    1
   128   119   120    2
   129   121   122    1
   130    11     9   am
   131    89    90    1
   132    89    88    1
   133    27    25   am
   134   111   110    1
   135   111   114    1
   136    24    25    1
   137   122   123    1
   138    25    26    2
   139   107   108    1
   140   107   104    1
   141   110   105   am
   142    10     9    2
   143   106   105    2
   144    87    88    1
   145    87    86    1
   146     9     8    1
   147   105   104    1
   148   114   115    1
   149   114   116    1
   150   108   109    1
   151   104   103    1
   152    83    86    1
   153    83    82    1
   154    83    84    1
   155     6     5    1
   156    85    84    2
   157   123   129   am
   158   123   124    2
   159     5     2    1
   160     8     7    1
   161   129   130    1
   162     4     3    2
   163   134   133    1
   164   134   135    1
   165     7     3   am
   166     3     2    1
   167   137   135   am
   168   109   103    1
   169    80    79    2
   170   133   130    1
   171     2     1    1
   172   135   136    2
   173    78    79    1
   174    78    77    1
   175   130   131    1
   176    79    81   am
   177   102   101    1
   178    76    75    2
   179    74    77    1
   180    74    75    1
   181    74    73    1
   182   131   132    2
   183   100   101   ar
   184   100    98   ar
   185   101    99   ar
   186    98    96   ar
   187    99    97   ar
   188    96    97   ar
   189    96    95    1
   190    95    92    1
   191    92    93    1
   192    92    91    1
   193    94    93    2
