@<TRIPOS>MOLECULE
tmp/1maxA00.pdb
 169 167 0 0 0
SMALL
GASTEIGER

@<TRIPOS>ATOM
      1  N         -3.4500   14.7480   30.9530 N.3    24  PHE24      -0.1227
      2  CA        -2.9470   15.6180   29.9160 C.3    24  PHE24       0.1736
      3  C         -2.1530   14.8590   28.8880 C.2    24  PHE24       0.2595
      4  O         -1.9150   15.4090   27.8220 O.2    24  PHE24      -0.2718
      5  CB        -2.0380   16.7060   30.4590 C.3    24  PHE24       0.0547
      6  CG        -0.7560   16.2410   31.1390 C.ar   24  PHE24      -0.0202
      7  CD1       -0.7940   15.7250   32.4120 C.ar   24  PHE24      -0.0042
      8  CD2        0.4440   16.3380   30.4570 C.ar   24  PHE24      -0.0042
      9  CE1        0.3720   15.3370   33.0270 C.ar   24  PHE24      -0.0003
     10  CE2        1.5970   15.9450   31.0790 C.ar   24  PHE24      -0.0003
     11  CZ         1.5660   15.4490   32.3580 C.ar   24  PHE24      -0.0000
     12  N         -1.7000   13.6450   29.1750 N.am   25  CYS25      -0.1970
     13  CA        -0.9240   12.8760   28.2250 C.3    25  CYS25       0.1712
     14  C         -0.9560   11.4320   28.6390 C.2    25  CYS25       0.2296
     15  O         -1.3320   11.1030   29.7760 O.2    25  CYS25      -0.2864
     16  CB         0.5660   13.2390   28.1640 C.3    25  CYS25       0.0983
     17  SG         0.8740   14.6800   27.1420 S.3    25  CYS25      -0.0798
     18  N          7.4240   16.7540   24.7930 N.3    40  HIS40      -0.1241
     19  CA         6.4430   17.8160   24.7510 C.3    40  HIS40       0.1621
     20  C          5.3750   17.6670   25.8310 C.2    40  HIS40       0.2264
     21  O          4.6060   18.5900   26.0330 O.2    40  HIS40      -0.2867
     22  CB         5.7690   17.9030   23.3660 C.3    40  HIS40       0.0745
     23  CG         4.5080   17.1120   22.9700 C.ar   40  HIS40       0.0817
     24  ND1        4.5510   16.0010   22.2330 N.ar   40  HIS40      -0.2268
     25  CD2        3.2070   17.4810   23.2180 C.ar   40  HIS40       0.1154
     26  CE1        3.3090   15.6740   22.0050 C.ar   40  HIS40       0.1986
     27  NE2        2.5130   16.5630   22.5930 N.ar   40  HIS40      -0.2212
     28  N         10.4750   23.3630   19.2510 N.3    79  ASN79      -0.1240
     29  CA        10.0420   24.0530   18.0520 C.3    79  ASN79       0.1653
     30  C          9.8530   23.0370   16.9680 C.2    79  ASN79       0.2266
     31  O          8.7450   22.9620   16.4290 O.2    79  ASN79      -0.2867
     32  CB        11.0210   25.0420   17.4800 C.3    79  ASN79       0.1155
     33  CG        11.3060   26.2280   18.3550 C.2    79  ASN79       0.2627
     34  OD1       12.4280   26.7200   18.3790 O.2    79  ASN79      -0.2716
     35  ND2       10.3920   26.7730   19.1300 N.am   79  ASN79      -0.0877
     36  N         10.0640   19.6450   17.2450 N.3    81  LEU81      -0.1245
     37  CA         9.6390   18.4280   17.9230 C.3    81  LEU81       0.1561
     38  C         10.5730   17.2690   17.6350 C.2    81  LEU81       0.2260
     39  O         10.2410   16.0940   17.6920 O.2    81  LEU81      -0.2867
     40  CB         8.2010   18.0560   17.5250 C.3    81  LEU81       0.0270
     41  CG         7.0730   18.8230   18.2030 C.3    81  LEU81       0.0019
     42  CD1        5.8230   17.9560   18.1980 C.3    81  LEU81       0.0001
     43  CD2        7.3540   19.0840   19.6560 C.3    81  LEU81       0.0001
     44  N         -6.8200    8.2000   13.1980 N.3   171  ASP171     -0.1225
     45  CA        -5.6060    8.8130   13.6860 C.3   171  ASP171      0.1805
     46  C         -5.6430    8.9070   15.2110 C.2   171  ASP171      0.2598
     47  O         -6.5530    8.4420   15.9200 O.2   171  ASP171     -0.2718
     48  CB        -5.4660   10.2320   13.0740 C.3   171  ASP171      0.1424
     49  CG        -4.0810   10.8310   13.0500 C.2   171  ASP171      0.3668
     50  OD1       -3.1370   10.2040   13.5290 O.co2 171  ASP171     -0.2456
     51  OD2       -3.9030   11.9500   12.5650 O.co2 171  ASP171     -0.2456
     52  N         -4.5610    9.3910   15.7740 N.am  172  SER172     -0.1938
     53  CA        -4.5240    9.8250   17.1550 C.3   172  SER172      0.2055
     54  C         -4.8840   11.3330   17.1960 C.2   172  SER172      0.2643
     55  O         -4.8610   12.0050   16.1710 O.2   172  SER172     -0.2714
     56  CB        -3.1110    9.5900   17.7050 C.3   172  SER172      0.2130
     57  OG        -2.1610    9.7410   16.6590 O.3   172  SER172     -0.2179
     58  N         -5.0880   11.9830   18.3300 N.am  173  CYS173     -0.1953
     59  CA        -5.5730   13.3530   18.3880 C.3   173  CYS173      0.1843
     60  C         -5.1360   14.0060   19.6730 C.2   173  CYS173      0.2625
     61  O         -4.3250   13.4220   20.3780 O.2   173  CYS173     -0.2714
     62  CB        -7.0780   13.2880   18.3040 C.3   173  CYS173      0.0997
     63  SG        -7.6920   14.8510   17.6920 S.3   173  CYS173     -0.0797
     64  N         -5.6270   15.2010   20.0090 N.am  174  GLN174     -0.1963
     65  CA        -5.2190   15.8960   21.2170 C.3   174  GLN174      0.1733
     66  C         -5.4460   15.0860   22.5000 C.2   174  GLN174      0.2617
     67  O         -6.5500   14.6030   22.7690 O.2   174  GLN174     -0.2715
     68  CB        -5.9820   17.2500   21.3890 C.3   174  GLN174      0.0408
     69  CG        -6.0620   18.1910   20.1490 C.3   174  GLN174      0.0908
     70  CD        -7.4190   18.2020   19.4030 C.2   174  GLN174      0.2608
     71  OE1       -8.4610   17.7160   19.8640 O.2   174  GLN174     -0.2717
     72  NE2       -7.4670   18.7490   18.2030 N.am  174  GLN174     -0.0878
     73  N         -4.4400   14.9650   23.3380 N.am  175  GLY175     -0.1940
     74  CA        -4.5550   14.1960   24.5410 C.3   175  GLY175      0.2014
     75  C         -3.9680   12.8240   24.3270 C.2   175  GLY175      0.2639
     76  O         -3.7870   12.1100   25.3430 O.2   175  GLY175     -0.2714
     77  N         -3.6990   12.4310   23.0850 N.am  176  ASP176     -0.1957
     78  CA        -3.1340   11.1060   22.8540 C.3   176  ASP176      0.1840
     79  C         -1.6300   11.1320   22.9870 C.2   176  ASP176      0.2622
     80  O         -0.9870   10.0860   23.1520 O.2   176  ASP176     -0.2715
     81  CB        -3.4560   10.5210   21.4650 C.3   176  ASP176      0.1450
     82  CG        -4.8790    9.9730   21.3660 C.2   176  ASP176      0.3671
     83  OD1       -5.3820    9.4110   22.3160 O.co2 176  ASP176     -0.2456
     84  OD2       -5.5270   10.1200   20.3530 O.co2 176  ASP176     -0.2456
     85  N         -1.0390   12.3370   22.8710 N.am  177  SER177     -0.1950
     86  CA         0.4030   12.5300   23.0030 C.3   177  SER177      0.1924
     87  C          1.0940   11.7470   24.1200 C.2   177  SER177      0.2314
     88  O          0.5270   11.4150   25.1710 O.2   177  SER177     -0.2863
     89  CB         0.6900   14.0080   23.2410 C.3   177  SER177      0.2116
     90  OG         0.4040   14.7290   22.0010 O.3   177  SER177     -0.2180
     91  N          3.4040    8.8920   20.5310 N.3   191  VAL191     -0.1231
     92  CA         2.5000    9.8300   19.8580 C.3   191  VAL191      0.1692
     93  C          3.0690   11.2480   19.9510 C.2   191  VAL191      0.2593
     94  O          3.1760   11.7800   21.0620 O.2   191  VAL191     -0.2718
     95  CB         1.0660    9.7140   20.5130 C.3   191  VAL191      0.0266
     96  CG1        0.2040   10.7160   19.8170 C.3   191  VAL191      0.0020
     97  CG2        0.3850    8.3680   20.3520 C.3   191  VAL191      0.0020
     98  N          3.3620   11.9040   18.8130 N.am  192  SER192     -0.1938
     99  CA         4.0290   13.1910   18.9110 C.3   192  SER192      0.2055
    100  C          3.2920   14.4040   18.3050 C.2   192  SER192      0.2643
    101  O          2.8970   15.3260   19.0620 O.2   192  SER192     -0.2714
    102  CB         5.4310   12.9880   18.2810 C.3   192  SER192      0.2130
    103  OG         6.2900   14.0970   18.1920 O.3   192  SER192     -0.2179
    104  N          3.0470   14.5000   16.9980 N.am  193  TRP193     -0.1959
    105  CA         2.3660   15.6440   16.4290 C.3   193  TRP193      0.1771
    106  C          1.5980   15.2330   15.1870 C.2   193  TRP193      0.2620
    107  O          1.5570   14.0410   14.8710 O.2   193  TRP193     -0.2715
    108  CB         3.3750   16.7090   16.0680 C.3   193  TRP193      0.0590
    109  CG         4.4500   16.3750   15.0450 C.ar  193  TRP193      0.0006
    110  CD1        5.6430   15.7850   15.3870 C.ar  193  TRP193      0.0946
    111  CD2        4.4400   16.7370   13.7150 C.ar  193  TRP193      0.0152
    112  NE1        6.3810   15.8020   14.3080 N.ar  193  TRP193     -0.2442
    113  CE2        5.7140   16.3550   13.2790 C.ar  193  TRP193      0.0810
    114  CE3        3.5160   17.3010   12.8710 C.ar  193  TRP193      0.0012
    115  CZ2        6.1160   16.5680   11.9770 C.ar  193  TRP193      0.0191
    116  CZ3        3.9220   17.5170   11.5780 C.ar  193  TRP193      0.0001
    117  CH2        5.1720   17.1180   11.1440 C.ar  193  TRP193      0.0015
    118  N          0.9160   16.1470   14.5040 N.am  194  GLY194     -0.1940
    119  CA         0.2510   15.9050   13.2370 C.3   194  GLY194      0.2014
    120  C         -0.4590   17.1870   12.8450 C.2   194  GLY194      0.2640
    121  O         -0.5270   18.1130   13.6820 O.2   194  GLY194     -0.2714
    122  N         -0.9840   17.3470   11.6430 N.am  195  SER195     -0.1935
    123  CA        -1.7410   18.5640   11.3580 C.3   195  SER195      0.2055
    124  C         -3.2260   18.2950   11.5200 C.2   195  SER195      0.2644
    125  O         -3.9140   17.8110   10.6260 O.2   195  SER195     -0.2714
    126  CB        -1.4790   19.0470    9.9440 C.3   195  SER195      0.2130
    127  OG        -0.0870   19.1240    9.7270 O.3   195  SER195     -0.2179
    128  N         -3.8110   18.7790   12.5800 N.am  196  GLY196     -0.1939
    129  CA        -5.1960   18.5190   12.9300 C.3   196  GLY196      0.2014
    130  C         -5.2470   17.0340   13.2580 C.2   196  GLY196      0.2639
    131  O         -4.2120   16.4640   13.6190 O.2   196  GLY196     -0.2714
    132  N         -6.3650   16.3450   13.1410 N.am  197  CYS197     -0.1967
    133  CA        -6.4270   14.9300   13.4690 C.3   197  CYS197      0.1712
    134  C         -7.1760   14.3100   12.2890 C.2   197  CYS197      0.2296
    135  O         -7.9660   15.0210   11.6640 O.2   197  CYS197     -0.2864
    136  CB        -7.2220   14.7160   14.7630 C.3   197  CYS197      0.0983
    137  SG        -6.5070   15.5540   16.2200 S.3   197  CYS197     -0.0798
    138  N         -2.5400   14.0370    5.9420 N.3   202  LYS202     -0.1245
    139  CA        -1.8350   14.5460    7.0900 C.3   202  LYS202      0.1561
    140  C         -1.8690   13.4970    8.1770 C.2   202  LYS202      0.2260
    141  O         -2.6290   13.6580    9.1340 O.2   202  LYS202     -0.2867
    142  CB        -2.4710   15.8420    7.5690 C.3   202  LYS202      0.0271
    143  CG        -2.1310   17.0340    6.6880 C.3   202  LYS202      0.0035
    144  CD        -3.3980   17.6110    6.0950 C.3   202  LYS202      0.0206
    145  CE        -3.8870   18.8110    6.8720 C.3   202  LYS202      0.1093
    146  NZ        -4.2530   18.4660    8.2260 N.3   202  LYS202     -0.1314
    147  N         -0.5400   10.7720   11.3880 N.3   204  GLY204     -0.1210
    148  CA         0.1060   10.9290   12.6730 C.3   204  GLY204      0.1956
    149  C          1.5960   10.7470   12.4440 C.2   204  GLY204      0.2612
    150  O          2.0550   10.0530   11.5170 O.2   204  GLY204     -0.2717
    151  N          2.3720   11.4010   13.3140 N.am  205  VAL205     -0.1965
    152  CA         3.8120   11.4210   13.2120 C.3   205  VAL205      0.1727
    153  C          4.2850   10.9800   14.5820 C.2   205  VAL205      0.2616
    154  O          3.6930   11.3580   15.6130 O.2   205  VAL205     -0.2715
    155  CB         4.3000   12.8280   12.8800 C.3   205  VAL205      0.0290
    156  CG1        5.8310   12.8560   12.8710 C.3   205  VAL205      0.0023
    157  CG2        3.9410   13.1870   11.4340 C.3   205  VAL205      0.0023
    158  N          5.3000   10.1040   14.6180 N.am  206  TYR206     -0.1974
    159  CA         5.6090    9.4540   15.8810 C.3   206  TYR206      0.1639
    160  C          7.0870    9.4530   16.1240 C.2   206  TYR206      0.2290
    161  O          7.8510    9.3070   15.1870 O.2   206  TYR206     -0.2864
    162  CB         5.0890    7.9940   15.8600 C.3   206  TYR206      0.0560
    163  CG         3.5630    7.8740   15.6980 C.ar  206  TYR206     -0.0198
    164  CD1        2.7690    7.9280   16.8060 C.ar  206  TYR206     -0.0009
    165  CD2        2.9900    7.7870   14.4390 C.ar  206  TYR206     -0.0009
    166  CE1        1.3890    7.9130   16.7090 C.ar  206  TYR206      0.0417
    167  CE2        1.6170    7.7730   14.3230 C.ar  206  TYR206      0.0417
    168  CZ         0.8300    7.8430   15.4610 C.ar  206  TYR206      0.1957
    169  OH        -0.5340    7.8830   15.3170 O.3   206  TYR206     -0.2866
@<TRIPOS>BOND
     1   138   139    1
     2   144   143    1
     3   144   145    1
     4   143   142    1
     5   145   146    1
     6   139   142    1
     7   139   140    1
     8   140   141    2
     9   127   126    1
    10   126   123    1
    11   125   124    2
    12   117   116   ar
    13   117   115   ar
    14   123   124    1
    15   123   122    1
    16   147   148    1
    17   157   155    1
    18   150   149    2
    19   124   128   am
    20   116   114   ar
    21   122   120   am
    22   135   134    2
    23   115   113   ar
    24   134   133    1
    25   149   148    1
    26   149   151   am
    27    51    49   ar
    28   128   129    1
    29   120   119    1
    30   120   121    2
    31   156   155    1
    32   114   111   ar
    33   155   152    1
    34   129   130    1
    35    49    48    1
    36    49    50   ar
    37    48    45    1
    38   132   130   am
    39   132   133    1
    40    44    45    1
    41   152   151    1
    42   152   153    1
    43   119   118    1
    44   130   131    2
    45   113   111   ar
    46   113   112   ar
    47   133   136    1
    48    45    46    1
    49   111   109   ar
    50   112   110   ar
    51   167   165   ar
    52   167   168   ar
    53   165   163   ar
    54   118   106   am
    55   153   158   am
    56   153   154    2
    57   158   159    1
    58   136   137    1
    59   107   106    2
    60   109   110   ar
    61   109   108    1
    62   106   105    1
    63   161   160    2
    64    46    52   am
    65    46    47    2
    66   169   168    1
    67   168   166   ar
    68   163   162    1
    69   163   164   ar
    70    52    53    1
    71   162   159    1
    72   159   160    1
    73   108   105    1
    74    55    54    2
    75   137    63    1
    76    31    30    2
    77   105   104    1
    78    57    56    1
    79   166   164   ar
    80    30    29    1
    81   104   100   am
    82    53    54    1
    83    53    56    1
    84    54    58   am
    85    36    37    1
    86    32    29    1
    87    32    33    1
    88    40    37    1
    89    40    41    1
    90    38    39    2
    91    38    37    1
    92    63    62    1
    93    29    28    1
    94   103   102    1
    95    42    41    1
    96    41    43    1
    97    72    70   am
    98   102    99    1
    99    62    59    1
   100   100    99    1
   101   100   101    2
   102    58    59    1
   103    33    34    2
   104    33    35   am
   105    59    60    1
   106    98    99    1
   107    98    93   am
   108    70    71    2
   109    70    69    1
   110    60    64   am
   111    60    61    2
   112    96    95    1
   113    92    93    1
   114    92    95    1
   115    92    91    1
   116    93    94    2
   117    64    65    1
   118    69    68    1
   119    97    95    1
   120    84    82   ar
   121    65    68    1
   122    65    66    1
   123    82    81    1
   124    82    83   ar
   125    81    78    1
   126    90    89    1
   127    26    24   ar
   128    26    27   ar
   129    24    23   ar
   130    66    67    2
   131    66    73   am
   132    27    25   ar
   133    78    79    1
   134    78    77    1
   135    85    79   am
   136    85    86    1
   137    23    25   ar
   138    23    22    1
   139    79    80    2
   140    86    89    1
   141    86    87    1
   142    77    75   am
   143    73    74    1
   144    22    19    1
   145    87    88    2
   146    75    74    1
   147    75    76    2
   148    19    18    1
   149    19    20    1
   150    20    21    2
   151    17    16    1
   152     4     3    2
   153    16    13    1
   154    13    14    1
   155    13    12    1
   156    14    15    2
   157     3    12   am
   158     3     2    1
   159     2     5    1
   160     2     1    1
   161     8    10   ar
   162     8     6   ar
   163     5     6    1
   164    10    11   ar
   165     6     7   ar
   166    11     9   ar
   167     7     9   ar
