@<TRIPOS>MOLECULE
tmp/1mb2B00.pdb
 113 108 0 0 0
SMALL
GASTEIGER

@<TRIPOS>ATOM
      1  N        105.0570   52.6690   62.0870 N.3     5  PHE5       -0.1227
      2  CA       104.3340   53.2360   60.9690 C.3     5  PHE5        0.1736
      3  C        104.0550   54.7200   61.1680 C.2     5  PHE5        0.2596
      4  O        103.3480   55.1020   62.1050 O.2     5  PHE5       -0.2718
      5  CB       103.0170   52.5140   60.7380 C.3     5  PHE5        0.0547
      6  CG       102.3620   52.9020   59.4540 C.ar    5  PHE5       -0.0202
      7  CD1      101.4170   53.9330   59.4070 C.ar    5  PHE5       -0.0042
      8  CD2      102.7500   52.2860   58.2620 C.ar    5  PHE5       -0.0042
      9  CE1      100.8770   54.3340   58.1880 C.ar    5  PHE5       -0.0003
     10  CE2      102.2110   52.6850   57.0490 C.ar    5  PHE5       -0.0003
     11  CZ       101.2770   53.7090   57.0080 C.ar    5  PHE5       -0.0000
     12  N        104.6040   55.5450   60.2770 N.am    6  SER6       -0.1938
     13  CA       104.4160   56.9930   60.3460 C.3     6  SER6        0.2055
     14  C        103.7040   57.5720   59.1230 C.2     6  SER6        0.2643
     15  O        104.2490   57.5960   58.0180 O.2     6  SER6       -0.2714
     16  CB       105.7650   57.6990   60.5210 C.3     6  SER6        0.2130
     17  OG       105.6070   59.1120   60.6330 O.3     6  SER6       -0.2179
     18  N        102.4770   58.0350   59.3410 N.am    7  GLY7       -0.1954
     19  CA       101.6860   58.6300   58.2740 C.3     7  GLY7        0.1869
     20  C        101.9340   60.1250   58.2310 C.2     7  GLY7        0.2309
     21  O        101.7040   60.8260   59.2180 O.2     7  GLY7       -0.2863
     22  N        101.0970   63.7900   56.5940 N.3     9  GLN9       -0.1245
     23  CA       100.1280   64.6070   55.8670 C.3     9  GLN9        0.1566
     24  C        100.8970   65.4560   54.8640 C.2     9  GLN9        0.2260
     25  O        101.8550   66.1350   55.2080 O.2     9  GLN9       -0.2867
     26  CB        99.3610   65.5170   56.8300 C.3     9  GLN9        0.0367
     27  CG        98.0020   64.9920   57.2360 C.3     9  GLN9        0.0905
     28  CD        96.9650   65.2500   56.1680 C.2     9  GLN9        0.2608
     29  OE1       95.8130   64.8080   56.2810 O.2     9  GLN9       -0.2717
     30  NE2       97.3660   65.9890   55.1230 N.am    9  GLN9       -0.0878
     31  N        100.2460   60.3340   53.3780 N.3    40  VAL40      -0.1245
     32  CA        98.8040   60.0480   53.3720 C.3    40  VAL40       0.1561
     33  C         97.8950   60.9650   52.5880 C.2    40  VAL40       0.2260
     34  O         96.9350   61.5240   53.1460 O.2    40  VAL40      -0.2867
     35  CB        98.2230   60.0030   54.8190 C.3    40  VAL40       0.0252
     36  CG1       98.4560   58.6500   55.4430 C.3    40  VAL40       0.0019
     37  CG2       98.8470   61.0880   55.6580 C.3    40  VAL40       0.0019
     38  N         94.0880   60.9700   52.9200 N.3    43  HIS43      -0.1241
     39  CA        93.5310   61.6330   54.0800 C.3    43  HIS43       0.1621
     40  C         93.4410   63.1210   53.7760 C.2    43  HIS43       0.2264
     41  O         92.4450   63.7550   54.0800 O.2    43  HIS43      -0.2867
     42  CB        94.4010   61.4110   55.3250 C.3    43  HIS43       0.0745
     43  CG        94.0250   60.2070   56.1270 C.ar   43  HIS43       0.0817
     44  ND1       94.8400   59.0990   56.2270 N.ar   43  HIS43      -0.2268
     45  CD2       92.9080   59.9210   56.8380 C.ar   43  HIS43       0.1154
     46  CE1       94.2390   58.1790   56.9590 C.ar   43  HIS43       0.1986
     47  NE2       93.0650   58.6520   57.3430 N.ar   43  HIS43      -0.2212
     48  N         87.3160   59.2530   58.5020 N.3   125  TYR125     -0.1241
     49  CA        88.7360   59.0520   58.2580 C.3   125  TYR125      0.1605
     50  C         89.4780   58.1780   59.2850 C.2   125  TYR125      0.2264
     51  O         90.5780   57.7000   59.0150 O.2   125  TYR125     -0.2867
     52  CB        89.4540   60.3650   58.0370 C.3   125  TYR125      0.0534
     53  CG        89.8170   61.1290   59.2720 C.ar  125  TYR125     -0.0201
     54  CD1       91.1270   61.1410   59.7410 C.ar  125  TYR125     -0.0009
     55  CD2       88.8640   61.8820   59.9500 C.ar  125  TYR125     -0.0009
     56  CE1       91.4890   61.8940   60.8560 C.ar  125  TYR125      0.0417
     57  CE2       89.2000   62.6420   61.0690 C.ar  125  TYR125      0.0417
     58  CZ        90.5170   62.6510   61.5170 C.ar  125  TYR125      0.1957
     59  OH        90.8510   63.4590   62.5790 O.3   125  TYR125     -0.2866
     60  N         92.6150   55.3430   59.0490 N.3   129  MET129     -0.1245
     61  CA        93.8730   55.5010   59.7660 C.3   129  MET129      0.1570
     62  C         94.1500   54.1520   60.4360 C.2   129  MET129      0.2261
     63  O         95.2940   53.6920   60.5280 O.2   129  MET129     -0.2867
     64  CB        93.7580   56.6000   60.8120 C.3   129  MET129      0.0387
     65  CG        95.0840   57.1460   61.2860 C.3   129  MET129      0.0595
     66  SD        94.8330   58.3470   62.5900 S.3   129  MET129     -0.1393
     67  CE        96.3860   58.2990   63.3480 C.3   129  MET129      0.0692
     68  N         95.5340   52.0400   57.6890 N.3   132  ASP132     -0.1225
     69  CA        96.9170   52.3390   57.3440 C.3   132  ASP132      0.1805
     70  C         97.8520   51.6480   58.2960 C.2   132  ASP132      0.2597
     71  O         98.8640   51.0970   57.8680 O.2   132  ASP132     -0.2718
     72  CB        97.2380   53.8350   57.4100 C.3   132  ASP132      0.1424
     73  CG        96.2720   54.6920   56.6220 C.2   132  ASP132      0.3668
     74  OD1       95.8680   54.2880   55.5220 O.co2 132  ASP132     -0.2456
     75  OD2       95.9340   55.7960   57.1060 O.co2 132  ASP132     -0.2456
     76  N         97.5010   51.6760   59.5820 N.am  133  ILE133     -0.1980
     77  CA        98.3300   51.0900   60.6390 C.3   133  ILE133      0.1595
     78  C         98.3290   49.5720   60.6870 C.2   133  ILE133      0.2287
     79  O         99.3770   48.9350   60.5340 O.2   133  ILE133     -0.2864
     80  CB        97.9020   51.6220   62.0330 C.3   133  ILE133      0.0276
     81  CG1       98.1610   53.1320   62.1180 C.3   133  ILE133      0.0022
     82  CG2       98.6740   50.8930   63.1360 C.3   133  ILE133      0.0022
     83  CD1       97.5000   53.7960   63.3070 C.3   133  ILE133      0.0001
     84  N        103.3340   53.3720   66.7420 N.3   141  VAL141     -0.1231
     85  CA       102.8460   54.4840   65.9490 C.3   141  VAL141      0.1678
     86  C        103.3000   55.7750   66.6280 C.2   141  VAL141      0.2434
     87  O        102.7600   56.1570   67.6680 O.2   141  VAL141     -0.2733
     88  CB       101.3060   54.5430   65.9050 C.3   141  VAL141      0.0265
     89  CG1      100.8660   55.5260   64.8230 C.3   141  VAL141      0.0020
     90  CG2      100.7350   53.1480   65.6620 C.3   141  VAL141      0.0020
     91  N        104.3070   56.4580   66.0660 N.am  142  PRO142     -0.2718
     92  CA       104.7790   57.7070   66.6760 C.3   142  PRO142      0.1535
     93  C        103.8130   58.8790   66.5460 C.2   142  PRO142      0.2598
     94  O        104.0070   59.7480   65.7040 O.2   142  PRO142     -0.2715
     95  CB       106.0970   57.9670   65.9470 C.3   142  PRO142      0.0310
     96  CG       105.8720   57.3410   64.6000 C.3   142  PRO142      0.0237
     97  CD       105.1750   56.0530   64.9460 C.3   142  PRO142      0.0939
     98  N        102.7900   58.9170   67.3900 N.am  143  VAL143     -0.1978
     99  CA       101.8170   60.0000   67.3290 C.3   143  VAL143      0.1596
    100  C        101.8510   60.9910   68.4940 C.2   143  VAL143      0.2287
    101  O        102.2430   60.6630   69.6180 O.2   143  VAL143     -0.2864
    102  CB       100.3860   59.4540   67.2240 C.3   143  VAL143      0.0276
    103  CG1      100.2660   58.5760   66.0100 C.3   143  VAL143      0.0022
    104  CG2      100.0210   58.6860   68.4790 C.3   143  VAL143      0.0022
    105  N         96.8050   62.8590   68.5070 N.3   147  GLN147     -0.1245
    106  CA        96.4250   61.6770   67.7460 C.3   147  GLN147      0.1566
    107  C         96.0980   60.4420   68.5930 C.2   147  GLN147      0.2260
    108  O         95.4480   59.5190   68.1050 O.2   147  GLN147     -0.2867
    109  CB        97.5390   61.3320   66.7650 C.3   147  GLN147      0.0367
    110  CG        97.7190   62.3360   65.6520 C.3   147  GLN147      0.0905
    111  CD        96.5020   62.3950   64.7440 C.2   147  GLN147      0.2608
    112  OE1       95.9860   61.3690   64.3170 O.2   147  GLN147     -0.2717
    113  NE2       96.0550   63.5980   64.4360 N.am  147  GLN147     -0.0878
@<TRIPOS>BOND
     1    33    34    2
     2    33    32    1
     3    38    39    1
     4    32    31    1
     5    32    35    1
     6    40    41    2
     7    40    39    1
     8    39    42    1
     9    35    36    1
    10    35    37    1
    11    24    25    2
    12    24    23    1
    13    30    28   am
    14    42    43    1
    15    74    73   ar
    16    23    22    1
    17    23    26    1
    18    43    44   ar
    19    43    45   ar
    20    28    29    2
    21    28    27    1
    22    44    46   ar
    23    73    75   ar
    24    73    72    1
    25    26    27    1
    26    45    47   ar
    27    46    47   ar
    28    11    10   ar
    29    11     9   ar
    30    10     8   ar
    31    69    72    1
    32    69    68    1
    33    69    70    1
    34    71    70    2
    35    15    14    2
    36    52    49    1
    37    52    53    1
    38     9     7   ar
    39    20    19    1
    40    20    21    2
    41    49    48    1
    42    49    50    1
    43     8     6   ar
    44    19    18    1
    45    70    76   am
    46    51    50    2
    47    60    61    1
    48    14    18   am
    49    14    13    1
    50    53    54   ar
    51    53    55   ar
    52     7     6   ar
    53     6     5    1
    54    76    77    1
    55    54    56   ar
    56    61    62    1
    57    61    64    1
    58    55    57   ar
    59    12    13    1
    60    12     3   am
    61    13    16    1
    62    62    63    2
    63    16    17    1
    64    79    78    2
    65    77    78    1
    66    77    80    1
    67     5     2    1
    68    64    65    1
    69    56    58   ar
    70     2     3    1
    71     2     1    1
    72    57    58   ar
    73     3     4    2
    74    65    66    1
    75    58    59    1
    76    80    81    1
    77    80    82    1
    78    81    83    1
    79    66    67    1
    80   112   111    2
    81   113   111   am
    82    96    97    1
    83    96    95    1
    84   111   110    1
    85    89    88    1
    86    97    91    1
    87   110   109    1
    88    90    88    1
    89    94    93    2
    90    88    85    1
    91    95    92    1
    92    85    86    1
    93    85    84    1
    94   103   102    1
    95    91    86   am
    96    91    92    1
    97    93    92    1
    98    93    98   am
    99    86    87    2
   100   109   106    1
   101   102    99    1
   102   102   104    1
   103    99    98    1
   104    99   100    1
   105   106   105    1
   106   106   107    1
   107   108   107    2
   108   100   101    2
