@<TRIPOS>MOLECULE
tmp/1mb9A02.pdb
 176 167 0 0 0
SMALL
GASTEIGER

@<TRIPOS>ATOM
      1  N         -5.6000   99.4820   72.0550 N.3   235  VAL235     -0.1231
      2  CA        -4.5500   98.4790   72.0810 C.3   235  VAL235      0.1692
      3  C         -3.8090   98.8340   70.8040 C.2   235  VAL235      0.2592
      4  O         -4.3300   98.6980   69.6940 O.2   235  VAL235     -0.2718
      5  CB        -5.1570   97.0620   72.0710 C.3   235  VAL235      0.0266
      6  CG1       -5.5940   96.6920   73.4790 C.3   235  VAL235      0.0020
      7  CG2       -6.3680   97.0190   71.1670 C.3   235  VAL235      0.0020
      8  N         -2.5930   99.3270   70.9890 N.am  236  LEU236     -0.1966
      9  CA        -1.7680   99.8430   69.9060 C.3   236  LEU236      0.1728
     10  C         -0.5050   99.0430   69.6400 C.2   236  LEU236      0.2616
     11  O          0.2820   98.7830   70.5500 O.2   236  LEU236     -0.2715
     12  CB        -1.4150  101.2910   70.2750 C.3   236  LEU236      0.0311
     13  CG        -0.8810  102.3890   69.3580 C.3   236  LEU236      0.0022
     14  CD1        0.4650  102.8070   69.8780 C.3   236  LEU236      0.0001
     15  CD2       -0.8360  101.9500   67.9160 C.3   236  LEU236      0.0001
     16  N         -0.3030   98.6720   68.3800 N.am  237  SER237     -0.1950
     17  CA         0.8770   97.9090   67.9980 C.3   237  SER237      0.1924
     18  C          1.8260   98.7470   67.1540 C.2   237  SER237      0.2314
     19  O          2.9360   98.3200   66.8360 O.2   237  SER237     -0.2863
     20  CB         0.4650   96.6710   67.2120 C.3   237  SER237      0.2116
     21  OG        -0.1830   97.0340   66.0080 O.3   237  SER237     -0.2180
     22  N          1.1470   99.4990   64.2160 N.3   239  GLY239     -0.1210
     23  CA         0.8280   99.1820   62.8300 C.3   239  GLY239      0.1956
     24  C         -0.1120  100.2900   62.3740 C.2   239  GLY239      0.2612
     25  O         -0.6260  101.0240   63.2220 O.2   239  GLY239     -0.2717
     26  N         -0.3630  100.4210   61.0720 N.am  240  ILE240     -0.1965
     27  CA        -1.2320  101.4910   60.5820 C.3   240  ILE240      0.1727
     28  C         -2.6880  101.3750   61.0380 C.2   240  ILE240      0.2616
     29  O         -3.3300  102.3840   61.3410 O.2   240  ILE240     -0.2715
     30  CB        -1.1990  101.5880   59.0190 C.3   240  ILE240      0.0290
     31  CG1       -2.0680  102.7630   58.5320 C.3   240  ILE240      0.0022
     32  CG2       -1.6910  100.2710   58.4020 C.3   240  ILE240      0.0023
     33  CD1       -1.5660  104.1660   58.9650 C.3   240  ILE240      0.0001
     34  N         -3.2120  100.1520   61.0940 N.am  241  ASP241     -0.1957
     35  CA        -4.6030   99.9420   61.5050 C.3   241  ASP241      0.1840
     36  C         -4.8740  100.5430   62.8890 C.2   241  ASP241      0.2622
     37  O         -5.6920  101.4580   63.0230 O.2   241  ASP241     -0.2715
     38  CB        -4.9490   98.4450   61.5320 C.3   241  ASP241      0.1450
     39  CG        -4.6660   97.7490   60.2170 C.2   241  ASP241      0.3671
     40  OD1       -4.4370   98.4350   59.2050 O.co2 241  ASP241     -0.2456
     41  OD2       -4.6800   96.4970   60.1910 O.co2 241  ASP241     -0.2456
     42  N         -4.1900  100.0170   63.9070 N.am  242  SER242     -0.1950
     43  CA        -4.3410  100.4930   65.2740 C.3   242  SER242      0.1924
     44  C         -3.9430  101.9660   65.4220 C.2   242  SER242      0.2314
     45  O         -4.5550  102.6920   66.1980 O.2   242  SER242     -0.2863
     46  CB        -3.5080   99.6370   66.2280 C.3   242  SER242      0.2116
     47  OG        -2.1420   99.6420   65.8530 O.3   242  SER242     -0.2180
     48  N         -1.9620  101.0040   75.0330 N.3   259  VAL259     -0.1231
     49  CA        -1.2490   99.9050   75.6660 C.3   259  VAL259      0.1692
     50  C         -0.7230   98.9840   74.5780 C.2   259  VAL259      0.2593
     51  O         -1.4130   98.7300   73.5920 O.2   259  VAL259     -0.2718
     52  CB        -2.1800   99.1040   76.6300 C.3   259  VAL259      0.0266
     53  CG1       -3.3260   98.4550   75.8500 C.3   259  VAL259      0.0020
     54  CG2       -1.3850   98.0510   77.3660 C.3   259  VAL259      0.0020
     55  N          0.5090   98.5120   74.7490 N.am  260  SER260     -0.1938
     56  CA         1.1400   97.5940   73.7970 C.3   260  SER260      0.2055
     57  C          1.5690   96.3430   74.5520 C.2   260  SER260      0.2642
     58  O          2.0540   96.4270   75.6830 O.2   260  SER260     -0.2714
     59  CB         2.3740   98.2320   73.1560 C.3   260  SER260      0.2130
     60  OG         2.0530   99.4390   72.4870 O.3   260  SER260     -0.2179
     61  N          1.3940   95.1850   73.9270 N.am  261  MET261     -0.1976
     62  CA         1.7690   93.9230   74.5530 C.3   261  MET261      0.1605
     63  C          2.9550   93.3000   73.8150 C.2   261  MET261      0.2287
     64  O          3.0420   93.3670   72.5900 O.2   261  MET261     -0.2864
     65  CB         0.5660   92.9760   74.5490 C.3   261  MET261      0.0413
     66  CG         0.7180   91.7080   75.3910 C.3   261  MET261      0.0598
     67  SD         1.6850   90.4210   74.5730 S.3   261  MET261     -0.1393
     68  CE         0.9190   90.4230   72.9510 C.3   261  MET261      0.0692
     69  N          6.5740   95.0450   69.5560 N.3   268  GLU268     -0.1245
     70  CA         6.5860   96.1420   68.6010 C.3   268  GLU268      0.1567
     71  C          6.5780   97.4580   69.3590 C.2   268  GLU268      0.2260
     72  O          6.0430   98.4620   68.8810 O.2   268  GLU268     -0.2867
     73  CB         5.3600   96.0610   67.6940 C.3   268  GLU268      0.0388
     74  CG         5.2060   94.7270   66.9770 C.3   268  GLU268      0.1160
     75  CD         4.0820   94.7460   65.9690 C.2   268  GLU268      0.3649
     76  OE1        4.1620   95.5540   65.0270 O.co2 268  GLU268     -0.2457
     77  OE2        3.1190   93.9630   66.1130 O.co2 268  GLU268     -0.2457
     78  N         -4.3000   82.8590   66.9870 N.3   314  TYR314     -0.1241
     79  CA        -4.2870   84.2850   66.6770 C.3   314  TYR314      0.1605
     80  C         -4.8080   85.1540   67.8320 C.2   314  TYR314      0.2264
     81  O         -4.3470   86.2850   68.0360 O.2   314  TYR314     -0.2867
     82  CB        -5.1430   84.5250   65.4360 C.3   314  TYR314      0.0534
     83  CG        -5.6560   85.9310   65.3230 C.ar  314  TYR314     -0.0201
     84  CD1       -4.8250   86.9620   64.9120 C.ar  314  TYR314     -0.0009
     85  CD2       -6.9690   86.2370   65.6630 C.ar  314  TYR314     -0.0009
     86  CE1       -5.2870   88.2730   64.8420 C.ar  314  TYR314      0.0417
     87  CE2       -7.4450   87.5410   65.6000 C.ar  314  TYR314      0.0417
     88  CZ        -6.6020   88.5560   65.1880 C.ar  314  TYR314      0.1957
     89  OH        -7.0760   89.8450   65.1230 O.3   314  TYR314     -0.2866
     90  N         -2.4920   86.2900   72.0050 N.3   317  PRO317     -0.2102
     91  CA        -1.9180   87.5380   72.5200 C.3   317  PRO317      0.1504
     92  C         -2.9700   88.5050   73.0870 C.2   317  PRO317      0.2575
     93  O         -2.7880   89.0850   74.1610 O.2   317  PRO317     -0.2718
     94  CB        -1.2040   88.1190   71.3000 C.3   317  PRO317      0.0282
     95  CG        -0.9130   86.9230   70.4510 C.3   317  PRO317      0.0208
     96  CD        -2.1630   86.1040   70.5820 C.3   317  PRO317      0.0893
     97  N         -4.0740   88.6670   72.3670 N.am  318  LEU318     -0.1980
     98  CA        -5.1230   89.5800   72.7960 C.3   318  LEU318      0.1596
     99  C         -5.7810   89.1470   74.0910 C.2   318  LEU318      0.2287
    100  O         -6.0990   89.9770   74.9450 O.2   318  LEU318     -0.2864
    101  CB        -6.1680   89.7290   71.6850 C.3   318  LEU318      0.0297
    102  CG        -5.6330   90.5060   70.4730 C.3   318  LEU318      0.0022
    103  CD1       -6.6670   90.5470   69.3680 C.3   318  LEU318      0.0001
    104  CD2       -5.2650   91.9230   70.9100 C.3   318  LEU318      0.0001
    105  N         -3.3460   89.9350   76.8140 N.3   321  LEU321     -0.1245
    106  CA        -3.3130   91.3820   77.0200 C.3   321  LEU321      0.1561
    107  C         -4.5290   91.8780   77.8150 C.2   321  LEU321      0.2260
    108  O         -4.3810   92.6460   78.7690 O.2   321  LEU321     -0.2867
    109  CB        -3.2320   92.0870   75.6640 C.3   321  LEU321      0.0270
    110  CG        -3.2920   93.6190   75.6020 C.3   321  LEU321      0.0019
    111  CD1       -2.3810   94.2370   76.6420 C.3   321  LEU321      0.0001
    112  CD2       -2.8810   94.0610   74.1970 C.3   321  LEU321      0.0001
    113  N         -9.9460   98.8650   68.9220 N.3   334  THR334     -0.1203
    114  CA        -8.8340   98.1570   68.3060 C.3   334  THR334      0.1994
    115  C         -8.8200   98.4240   66.8070 C.2   334  THR334      0.2618
    116  O         -9.7990   98.9310   66.2460 O.2   334  THR334     -0.2717
    117  CB        -8.9620   96.6320   68.5210 C.3   334  THR334      0.1784
    118  OG1       -9.7800   96.0750   67.4880 O.3   334  THR334     -0.2211
    119  CG2       -9.6420   96.3390   69.8560 C.3   334  THR334      0.0376
    120  N         -7.7050   98.0820   66.1660 N.am  335  GLY335     -0.1942
    121  CA        -7.5830   98.2550   64.7300 C.3   335  GLY335      0.2014
    122  C         -7.8220   96.9170   64.0460 C.2   335  GLY335      0.2639
    123  O         -7.4450   96.7030   62.8940 O.2   335  GLY335     -0.2714
    124  N         -8.4500   96.0030   64.7740 N.am  336  TYR336     -0.1959
    125  CA        -8.7460   94.6730   64.2510 C.3   336  TYR336      0.1771
    126  C         -9.5640   94.6500   62.9530 C.2   336  TYR336      0.2620
    127  O        -10.4430   95.4830   62.7430 O.2   336  TYR336     -0.2715
    128  CB        -9.5130   93.8640   65.2910 C.3   336  TYR336      0.0574
    129  CG       -10.1110   92.6230   64.6950 C.ar  336  TYR336     -0.0198
    130  CD1       -9.3170   91.5160   64.4250 C.ar  336  TYR336     -0.0009
    131  CD2      -11.4480   92.5830   64.3200 C.ar  336  TYR336     -0.0009
    132  CE1       -9.8320   90.3980   63.7930 C.ar  336  TYR336      0.0417
    133  CE2      -11.9770   91.4670   63.6780 C.ar  336  TYR336      0.0417
    134  CZ       -11.1600   90.3760   63.4190 C.ar  336  TYR336      0.1957
    135  OH       -11.6630   89.2640   62.7820 O.3   336  TYR336     -0.2866
    136  N         -9.2610   93.6710   62.1010 N.am  337  GLY337     -0.1954
    137  CA        -9.9970   93.4780   60.8670 C.3   337  GLY337      0.1869
    138  C         -9.7410   94.3530   59.6590 C.2   337  GLY337      0.2309
    139  O        -10.2540   94.0620   58.5840 O.2   337  GLY337     -0.2863
    140  N         -7.2180   94.5520   57.8170 N.3   339  ASP339     -0.1239
    141  CA        -6.5490   93.7990   56.7620 C.3   339  ASP339      0.1674
    142  C         -7.4670   92.9980   55.8510 C.2   339  ASP339      0.2266
    143  O         -7.1530   92.7730   54.6840 O.2   339  ASP339     -0.2867
    144  CB        -5.5060   92.8660   57.3700 C.3   339  ASP339      0.1410
    145  CG        -4.4370   93.6190   58.1340 C.2   339  ASP339      0.3668
    146  OD1       -4.5090   93.6560   59.3830 O.co2 339  ASP339     -0.2456
    147  OD2       -3.5380   94.1920   57.4780 O.co2 339  ASP339     -0.2456
    148  N         -2.5890   98.2950   51.4190 N.3   411  LYS411     -0.1245
    149  CA        -3.6080   99.1150   52.0800 C.3   411  LYS411      0.1561
    150  C         -3.3500  100.6050   51.8660 C.2   411  LYS411      0.2260
    151  O         -3.5140  101.4130   52.7840 O.2   411  LYS411     -0.2867
    152  CB        -3.6040   98.8060   53.5760 C.3   411  LYS411      0.0271
    153  CG        -3.7630   97.3210   53.8940 C.3   411  LYS411      0.0035
    154  CD        -3.9290   97.0770   55.3880 C.3   411  LYS411      0.0206
    155  CE        -2.6480   97.3400   56.1690 C.3   411  LYS411      0.1093
    156  NZ        -2.8140   97.0120   57.6330 N.3   411  LYS411     -0.1314
    157  N         -3.4320  104.2460   54.4520 N.3   415  ARG415     -0.1245
    158  CA        -2.1910  104.9030   54.8170 C.3   415  ARG415      0.1563
    159  C         -2.3070  106.3700   54.4090 C.2   415  ARG415      0.2260
    160  O         -2.0110  107.2710   55.1920 O.2   415  ARG415     -0.2867
    161  CB        -1.0230  104.2350   54.0960 C.3   415  ARG415      0.0307
    162  CG        -0.7660  102.8180   54.5680 C.3   415  ARG415      0.0489
    163  CD         0.3860  102.1650   53.8340 C.3   415  ARG415      0.2205
    164  NE         0.6090  100.8040   54.3250 N.pl3 415  ARG415     -0.0865
    165  CZ         1.1320  100.5100   55.5130 C.cat 415  ARG415      0.5346
    166  NH1        1.2880   99.2430   55.8750 N.pl3 415  ARG415      0.1354
    167  NH2        1.5110  101.4820   56.3310 N.pl3 415  ARG415      0.1354
    168  N          3.1680   96.2800   56.0090 N.3   431  LYS431     -0.1245
    169  CA         2.6900   95.2630   56.9410 C.3   431  LYS431      0.1561
    170  C          3.6080   94.0420   56.9400 C.2   431  LYS431      0.2260
    171  O          4.3880   93.8820   55.9730 O.2   431  LYS431     -0.2867
    172  CB         1.2690   94.8390   56.5580 C.3   431  LYS431      0.0271
    173  CG         0.4520   94.2450   57.6980 C.3   431  LYS431      0.0035
    174  CD        -0.0930   92.8690   57.3500 C.3   431  LYS431      0.0206
    175  CE        -1.1680   92.4230   58.3410 C.3   431  LYS431      0.1093
    176  NZ        -0.7960   92.6350   59.7760 N.3   431  LYS431     -0.1314
@<TRIPOS>BOND
     1   148   149    1
     2   150   149    1
     3   150   151    2
     4   149   152    1
     5   152   153    1
     6   163   164    1
     7   163   162    1
     8   153   154    1
     9   161   162    1
    10   161   158    1
    11   164   165    2
    12   159   158    1
    13   159   160    2
    14   157   158    1
    15   143   142    2
    16   154   155    1
    17   165   166    1
    18   165   167    1
    19   142   141    1
    20   171   170    2
    21   168   169    1
    22   155   156    1
    23   172   169    1
    24   172   173    1
    25   141   144    1
    26   141   140    1
    27   170   169    1
    28   174   173    1
    29   174   175    1
    30   144   145    1
    31   147   145   ar
    32   145   146   ar
    33   175   176    1
    34    32    30    1
    35    31    33    1
    36    31    30    1
    37   139   138    2
    38    30    27    1
    39    40    39   ar
    40   138   137    1
    41    41    39   ar
    42    39    38    1
    43    27    28    1
    44    27    26    1
    45   137   136    1
    46    28    34   am
    47    28    29    2
    48    26    24   am
    49    34    35    1
    50    35    38    1
    51    35    36    1
    52   136   126   am
    53    24    23    1
    54    24    25    2
    55   127   126    2
    56   135   134    1
    57    23    22    1
    58    36    37    2
    59    36    42   am
    60   123   122    2
    61   126   125    1
    62   134   133   ar
    63   134   132   ar
    64   133   131   ar
    65   132   130   ar
    66    42    43    1
    67   122   121    1
    68   122   124   am
    69   125   124    1
    70   125   128    1
    71   131   129   ar
    72   130   129   ar
    73   129   128    1
    74   121   120    1
    75    86    84   ar
    76    86    88   ar
    77    84    83   ar
    78    76    75   ar
    79    89    88    1
    80    88    87   ar
    81    43    44    1
    82    43    46    1
    83    83    82    1
    84    83    85   ar
    85    44    45    2
    86    82    79    1
    87    87    85   ar
    88    47    46    1
    89    75    77   ar
    90    75    74    1
    91    21    20    1
    92   120   115   am
    93   116   115    2
    94    79    78    1
    95    79    80    1
    96   115   114    1
    97    19    18    2
    98    74    73    1
    99    18    17    1
   100    20    17    1
   101   118   117    1
   102    73    70    1
   103    80    81    2
   104    15    13    1
   105    17    16    1
   106   114   117    1
   107   114   113    1
   108    16    10   am
   109   117   119    1
   110    70    71    1
   111    70    69    1
   112    72    71    2
   113    13    14    1
   114    13    12    1
   115   103   102    1
   116    10     9    1
   117    10    11    2
   118     4     3    2
   119     9    12    1
   120     9     8    1
   121    95    96    1
   122    95    94    1
   123   102   104    1
   124   102   101    1
   125    96    90    1
   126     3     8   am
   127     3     2    1
   128     7     5    1
   129    94    91    1
   130   101    98    1
   131    90    91    1
   132     1     2    1
   133     5     2    1
   134     5     6    1
   135    97    98    1
   136    97    92   am
   137    60    59    1
   138    91    92    1
   139    64    63    2
   140    98    99    1
   141    68    67    1
   142    92    93    2
   143    59    56    1
   144    51    50    2
   145    56    57    1
   146    56    55    1
   147    63    62    1
   148    61    57   am
   149    61    62    1
   150    99   100    2
   151   112   110    1
   152    65    62    1
   153    65    66    1
   154    57    58    2
   155    67    66    1
   156    50    55   am
   157    50    49    1
   158    48    49    1
   159   110   109    1
   160   110   111    1
   161   109   106    1
   162    49    52    1
   163    53    52    1
   164    52    54    1
   165   105   106    1
   166   106   107    1
   167   107   108    2
