@<TRIPOS>MOLECULE
tmp/1mbnA00.pdb
 195 187 0 0 0
SMALL
GASTEIGER

@<TRIPOS>ATOM
      1  N         20.3000   16.7000    1.9000 N.3    32  LEU32      -0.1245
      2  CA        19.4000   17.4000    1.0000 C.3    32  LEU32       0.1561
      3  C         20.1000   17.8000   -0.3000 C.2    32  LEU32       0.2260
      4  O         19.6000   17.5000   -1.4000 O.2    32  LEU32      -0.2867
      5  CB        18.6000   18.6000    1.6000 C.3    32  LEU32       0.0270
      6  CG        17.5000   19.2000    0.8000 C.3    32  LEU32       0.0019
      7  CD1       16.4000   18.2000    0.6000 C.3    32  LEU32       0.0001
      8  CD2       16.9000   20.4000    1.5000 C.3    32  LEU32       0.0001
      9  N         17.4000   22.0000   -5.0000 N.3    39  THR39      -0.1218
     10  CA        17.3000   22.7000   -3.7000 C.3    39  THR39       0.1862
     11  C         18.4000   23.7000   -3.3000 C.2    39  THR39       0.2287
     12  O         18.2000   24.7000   -2.7000 O.2    39  THR39      -0.2866
     13  CB        17.2000   21.9000   -2.4000 C.3    39  THR39       0.1770
     14  OG1       18.4000   21.3000   -2.3000 O.3    39  THR39      -0.2211
     15  CG2       16.1000   20.8000   -2.6000 C.3    39  THR39       0.0375
     16  N         19.0000   26.9000   -5.4000 N.3    42  LYS42      -0.1231
     17  CA        18.3000   28.0000   -4.8000 C.3    42  LYS42       0.1693
     18  C         18.9000   28.9000   -3.7000 C.2    42  LYS42       0.2592
     19  O         18.4000   30.1000   -3.5000 O.2    42  LYS42      -0.2718
     20  CB        17.2000   27.5000   -3.8000 C.3    42  LYS42       0.0285
     21  CG        15.9000   27.1000   -4.4000 C.3    42  LYS42       0.0035
     22  CD        15.0000   28.3000   -4.7000 C.3    42  LYS42       0.0206
     23  CE        14.3000   28.2000   -6.0000 C.3    42  LYS42       0.1093
     24  NZ        12.9000   28.6000   -5.8000 N.3    42  LYS42      -0.1314
     25  N         19.9000   28.4000   -3.1000 N.am   43  PHE43      -0.1962
     26  CA        20.7000   29.2000   -2.1000 C.3    43  PHE43       0.1771
     27  C         21.9000   29.7000   -2.8000 C.2    43  PHE43       0.2620
     28  O         22.9000   29.0000   -3.2000 O.2    43  PHE43      -0.2715
     29  CB        21.2000   27.9000   -1.3000 C.3    43  PHE43       0.0574
     30  CG        20.4000   27.7000   -0.1000 C.ar   43  PHE43      -0.0200
     31  CD1       20.7000   28.4000    1.0000 C.ar   43  PHE43      -0.0042
     32  CD2       19.3000   26.8000    0.0000 C.ar   43  PHE43      -0.0042
     33  CE1       20.0000   28.2000    2.3000 C.ar   43  PHE43      -0.0003
     34  CE2       18.6000   26.7000    1.2000 C.ar   43  PHE43      -0.0003
     35  CZ        19.0000   27.3000    2.3000 C.ar   43  PHE43      -0.0000
     36  N         21.9000   31.0000   -3.0000 N.am   44  ASP44      -0.1957
     37  CA        22.9000   31.8000   -3.7000 C.3    44  ASP44       0.1840
     38  C         24.3000   31.7000   -3.0000 C.2    44  ASP44       0.2621
     39  O         25.3000   31.5000   -3.6000 O.2    44  ASP44      -0.2715
     40  CB        22.7000   33.3000   -3.8000 C.3    44  ASP44       0.1450
     41  CG        22.0000   33.7000   -5.1000 C.2    44  ASP44       0.3671
     42  OD1       22.3000   33.3000   -6.2000 O.co2  44  ASP44      -0.2456
     43  OD2       20.9000   34.3000   -5.0000 O.co2  44  ASP44      -0.2456
     44  N         24.2000   31.8000   -1.6000 N.am   45  ARG45      -0.1977
     45  CA        25.3000   31.7000   -0.7000 C.3    45  ARG45       0.1597
     46  C         26.0000   30.3000   -0.7000 C.2    45  ARG45       0.2287
     47  O         27.1000   30.2000   -0.1000 O.2    45  ARG45      -0.2864
     48  CB        25.4000   32.3000    0.7000 C.3    45  ARG45       0.0334
     49  CG        24.4000   31.7000    1.7000 C.3    45  ARG45       0.0492
     50  CD        24.1000   32.8000    2.7000 C.3    45  ARG45       0.2205
     51  NE        24.5000   32.3000    4.1000 N.pl3  45  ARG45      -0.0865
     52  CZ        23.7000   32.2000    5.1000 C.cat  45  ARG45       0.5346
     53  NH1       24.1000   31.8000    6.3000 N.pl3  45  ARG45       0.1354
     54  NH2       22.4000   32.5000    5.0000 N.pl3  45  ARG45       0.1354
     55  N         24.1000   27.9000    8.9000 N.3    64  HIS64      -0.1241
     56  CA        22.9000   27.7000    8.2000 C.3    64  HIS64       0.1621
     57  C         22.0000   26.6000    8.8000 C.2    64  HIS64       0.2264
     58  O         20.8000   26.8000    9.0000 O.2    64  HIS64      -0.2867
     59  CB        22.6000   27.8000    6.7000 C.3    64  HIS64       0.0745
     60  CG        21.2000   28.1000    6.3000 C.ar   64  HIS64       0.0817
     61  ND1       20.6000   29.3000    6.6000 N.ar   64  HIS64      -0.2268
     62  CD2       20.3000   27.3000    5.6000 C.ar   64  HIS64       0.1154
     63  CE1       19.4000   29.2000    6.2000 C.ar   64  HIS64       0.1986
     64  NE2       19.2000   28.1000    5.5000 N.ar   64  HIS64      -0.2212
     65  N         20.5000   27.9000   11.9000 N.3    67  THR67      -0.1203
     66  CA        19.4000   28.8000   11.7000 C.3    67  THR67       0.1994
     67  C         18.2000   27.9000   11.6000 C.2    67  THR67       0.2617
     68  O         17.3000   28.1000   12.5000 O.2    67  THR67      -0.2717
     69  CB        19.8000   29.9000   10.7000 C.3    67  THR67       0.1784
     70  OG1       20.8000   30.7000   11.4000 O.3    67  THR67      -0.2211
     71  CG2       18.7000   30.8000   10.2000 C.3    67  THR67       0.0376
     72  N         18.2000   27.0000   10.6000 N.am   68  VAL68      -0.1979
     73  CA        17.1000   26.1000   10.4000 C.3    68  VAL68       0.1595
     74  C         16.6000   25.2000   11.6000 C.2    68  VAL68       0.2287
     75  O         15.4000   25.2000   11.9000 O.2    68  VAL68      -0.2864
     76  CB        17.7000   25.2000    9.3000 C.3    68  VAL68       0.0276
     77  CG1       16.9000   23.9000    9.0000 C.3    68  VAL68       0.0022
     78  CG2       18.1000   26.0000    8.1000 C.3    68  VAL68       0.0022
     79  N         14.5000   27.1000   14.3000 N.3    71  ALA71      -0.1231
     80  CA        13.2000   27.4000   13.9000 C.3    71  ALA71       0.1694
     81  C         12.4000   26.1000   14.0000 C.2    71  ALA71       0.2591
     82  O         11.3000   26.1000   14.6000 O.2    71  ALA71      -0.2718
     83  CB        13.2000   28.1000   12.5000 C.3    71  ALA71       0.0304
     84  N         12.9000   25.0000   13.5000 N.am   72  LEU72      -0.1980
     85  CA        12.4000   23.7000   13.5000 C.3    72  LEU72       0.1596
     86  C         11.9000   23.2000   14.9000 C.2    72  LEU72       0.2287
     87  O         10.7000   22.8000   15.1000 O.2    72  LEU72      -0.2864
     88  CB        13.0000   22.6000   12.7000 C.3    72  LEU72       0.0297
     89  CG        12.2000   21.3000   12.5000 C.3    72  LEU72       0.0022
     90  CD1       10.9000   21.6000   11.7000 C.3    72  LEU72       0.0001
     91  CD2       13.0000   20.3000   11.7000 C.3    72  LEU72       0.0001
     92  N          9.1000   25.0000   16.5000 N.3    75  ILE75      -0.1245
     93  CA         7.8000   24.4000   16.1000 C.3    75  ILE75       0.1561
     94  C          7.3000   23.1000   16.7000 C.2    75  ILE75       0.2260
     95  O          6.2000   23.1000   17.2000 O.2    75  ILE75      -0.2867
     96  CB         8.0000   24.3000   14.5000 C.3    75  ILE75       0.0252
     97  CG1        8.4000   25.7000   13.9000 C.3    75  ILE75       0.0019
     98  CG2        6.7000   23.7000   14.1000 C.3    75  ILE75       0.0019
     99  CD1        8.9000   25.6000   12.4000 C.3    75  ILE75       0.0001
    100  N          5.3000   33.5000    9.4000 N.3    88  PRO88      -0.2102
    101  CA         6.5000   34.2000    8.9000 C.3    88  PRO88       0.1504
    102  C          7.4000   33.4000    7.9000 C.2    88  PRO88       0.2575
    103  O          7.9000   33.9000    6.9000 O.2    88  PRO88      -0.2718
    104  CB         7.0000   34.9000   10.1000 C.3    88  PRO88       0.0282
    105  CG         6.2000   34.5000   11.4000 C.3    88  PRO88       0.0208
    106  CD         5.2000   33.5000   10.8000 C.3    88  PRO88       0.0893
    107  N          7.5000   32.1000    8.3000 N.am   89  LEU89      -0.1980
    108  CA         8.3000   31.2000    7.5000 C.3    89  LEU89       0.1596
    109  C          7.6000   30.9000    6.1000 C.2    89  LEU89       0.2287
    110  O          8.3000   31.0000    5.1000 O.2    89  LEU89      -0.2864
    111  CB         8.4000   29.9000    8.3000 C.3    89  LEU89       0.0297
    112  CG         9.4000   28.8000    7.8000 C.3    89  LEU89       0.0022
    113  CD1       10.7000   28.9000    8.6000 C.3    89  LEU89       0.0001
    114  CD2        8.8000   27.4000    8.0000 C.3    89  LEU89       0.0001
    115  N          8.0000   33.9000    4.1000 N.3    92  SER92      -0.1202
    116  CA         9.4000   34.0000    3.8000 C.3    92  SER92       0.2020
    117  C          9.7000   33.0000    2.6000 C.2    92  SER92       0.2615
    118  O         10.2000   33.5000    1.5000 O.2    92  SER92      -0.2717
    119  CB        10.5000   33.9000    4.9000 C.3    92  SER92       0.2103
    120  OG        10.6000   32.6000    5.4000 O.3    92  SER92      -0.2182
    121  N          9.4000   31.8000    2.8000 N.am   93  HIS93      -0.2028
    122  CA         9.6000   30.7000    1.8000 C.3    93  HIS93       0.1342
    123  C          8.8000   30.9000    0.5000 C.3    93  HIS93       0.2040
    124  O          9.4000   30.5000   -0.6000 O.3    93  HIS93      -0.2185
    125  CB         9.7000   29.4000    2.5000 C.3    93  HIS93       0.0718
    126  CG        10.9000   29.3000    3.4000 C.ar   93  HIS93       0.0817
    127  ND1       10.9000   29.7000    4.8000 N.ar   93  HIS93      -0.2268
    128  CD2       12.1000   28.8000    3.2000 C.ar   93  HIS93       0.1154
    129  CE1       12.0000   29.4000    5.3000 C.ar   93  HIS93       0.1986
    130  NE2       12.8000   28.9000    4.4000 N.ar   93  HIS93      -0.2212
    131  N         12.3000   33.3000   -1.0000 N.3    97  HIS97      -0.1297
    132  CA        13.0000   32.0000   -1.1000 C.3    97  HIS97       0.1306
    133  C         12.6000   31.1000   -2.3000 C.3    97  HIS97       0.2013
    134  O         13.5000   30.4000   -2.9000 O.3    97  HIS97      -0.2188
    135  CB        13.4000   31.3000    0.2000 C.3    97  HIS97       0.0691
    136  CG        13.6000   32.3000    1.3000 C.ar   97  HIS97       0.0814
    137  ND1       14.4000   33.4000    1.2000 N.ar   97  HIS97      -0.2268
    138  CD2       13.2000   32.2000    2.6000 C.ar   97  HIS97       0.1154
    139  CE1       14.4000   34.0000    2.4000 C.ar   97  HIS97       0.1986
    140  NE2       13.7000   33.3000    3.2000 N.ar   97  HIS97      -0.2212
    141  N         10.7000   28.3000   -2.4000 N.3    99  ILE99      -0.1301
    142  CA        10.8000   26.9000   -2.0000 C.3    99  ILE99       0.1246
    143  C          9.6000   26.1000   -2.1000 C.3    99  ILE99       0.2009
    144  O          8.6000   26.2000   -1.2000 O.3    99  ILE99      -0.2188
    145  CB        11.4000   26.9000   -0.6000 C.3    99  ILE99       0.0202
    146  CG1       12.8000   27.5000   -0.5000 C.3    99  ILE99       0.0015
    147  CG2       11.2000   25.5000   -0.2000 C.3    99  ILE99       0.0016
    148  CD1       13.4000   27.8000   -1.9000 C.3    99  ILE99       0.0000
    149  N         10.1000   20.6000   -1.5000 N.3   103  TYR103     -0.1227
    150  CA        11.4000   20.8000   -0.8000 C.3   103  TYR103      0.1736
    151  C         11.2000   20.4000    0.7000 C.2   103  TYR103      0.2595
    152  O         12.0000   19.7000    1.3000 O.2   103  TYR103     -0.2718
    153  CB        11.7000   22.1000   -1.4000 C.3   103  TYR103      0.0548
    154  CG        12.2000   22.0000   -2.9000 C.ar  103  TYR103     -0.0200
    155  CD1       13.4000   22.7000   -3.3000 C.ar  103  TYR103     -0.0009
    156  CD2       11.6000   21.2000   -3.8000 C.ar  103  TYR103     -0.0009
    157  CE1       13.8000   22.6000   -4.6000 C.ar  103  TYR103      0.0417
    158  CE2       12.0000   21.1000   -5.1000 C.ar  103  TYR103      0.0417
    159  CZ        13.2000   21.9000   -5.5000 C.ar  103  TYR103      0.1957
    160  OH        13.6000   21.8000   -6.8000 O.3   103  TYR103     -0.2866
    161  N         10.1000   20.9000    1.2000 N.am  104  LEU104     -0.1980
    162  CA         9.7000   20.7000    2.6000 C.3   104  LEU104      0.1596
    163  C          9.7000   19.2000    2.8000 C.2   104  LEU104      0.2287
    164  O         10.1000   18.7000    3.9000 O.2   104  LEU104     -0.2864
    165  CB         8.5000   21.5000    2.8000 C.3   104  LEU104      0.0297
    166  CG         8.6000   23.0000    3.0000 C.3   104  LEU104      0.0022
    167  CD1        7.8000   23.5000    4.2000 C.3   104  LEU104      0.0001
    168  CD2       10.1000   23.4000    3.1000 C.3   104  LEU104      0.0001
    169  N         13.5000   18.0000    2.2000 N.3   107  ILE107     -0.1245
    170  CA        14.2000   18.3000    3.4000 C.3   107  ILE107      0.1561
    171  C         13.8000   17.3000    4.5000 C.2   107  ILE107      0.2260
    172  O         14.6000   16.7000    5.2000 O.2   107  ILE107     -0.2867
    173  CB        14.5000   19.8000    3.8000 C.3   107  ILE107      0.0252
    174  CG1       15.8000   20.0000    4.7000 C.3   107  ILE107      0.0019
    175  CG2       13.1000   20.2000    4.5000 C.3   107  ILE107      0.0019
    176  CD1       15.8000   21.4000    5.4000 C.3   107  ILE107      0.0001
    177  N         16.0000   14.7000    6.8000 N.3   111  ILE111     -0.1245
    178  CA        15.7000   14.9000    8.3000 C.3   111  ILE111      0.1561
    179  C         15.7000   13.5000    9.0000 C.2   111  ILE111      0.2260
    180  O         16.5000   13.3000    9.9000 O.2   111  ILE111     -0.2867
    181  CB        14.6000   15.8000    8.8000 C.3   111  ILE111      0.0252
    182  CG1       14.8000   17.3000    8.5000 C.3   111  ILE111      0.0019
    183  CG2       14.5000   15.4000   10.3000 C.3   111  ILE111      0.0019
    184  CD1       14.3000   18.2000    9.6000 C.3   111  ILE111      0.0001
    185  N          3.8000   20.2000    9.6000 N.3   138  PHE138     -0.1241
    186  CA         4.5000   21.4000    9.3000 C.3   138  PHE138      0.1605
    187  C          4.2000   21.7000    7.8000 C.2   138  PHE138      0.2264
    188  O          3.9000   22.8000    7.4000 O.2   138  PHE138     -0.2867
    189  CB         5.9000   21.1000    9.9000 C.3   138  PHE138      0.0534
    190  CG         7.0000   21.9000    9.3000 C.ar  138  PHE138     -0.0203
    191  CD1        7.5000   21.6000    8.1000 C.ar  138  PHE138     -0.0042
    192  CD2        7.4000   23.1000    9.9000 C.ar  138  PHE138     -0.0042
    193  CE1        8.6000   22.3000    7.5000 C.ar  138  PHE138     -0.0003
    194  CE2        8.4000   23.9000    9.2000 C.ar  138  PHE138     -0.0003
    195  CZ         9.0000   23.5000    8.1000 C.ar  138  PHE138     -0.0000
@<TRIPOS>BOND
     1   160   159    1
     2    42    41   ar
     3    23    24    1
     4    23    22    1
     5   159   158   ar
     6   159   157   ar
     7    16    17    1
     8    41    43   ar
     9    41    40    1
    10   158   156   ar
    11     9    10    1
    12    17    20    1
    13    17    18    1
    14    22    21    1
    15   157   155   ar
    16    21    20    1
    17   156   154   ar
    18    40    37    1
    19    37    38    1
    20    37    36    1
    21    10    11    1
    22    10    13    1
    23    18    19    2
    24    18    25   am
    25    39    38    2
    26    11    12    2
    27   155   154   ar
    28    28    27    2
    29    25    26    1
    30    38    44   am
    31    36    27   am
    32   134   133    1
    33   154   153    1
    34    27    26    1
    35    15    13    1
    36   141   142    1
    37    13    14    1
    38   133   132    1
    39    26    29    1
    40   143   142    1
    41   143   144    1
    42   142   145    1
    43   148   146    1
    44    44    45    1
    45   149   150    1
    46   153   150    1
    47     4     3    2
    48    29    30    1
    49   132   131    1
    50   132   135    1
    51   150   151    1
    52    46    45    1
    53    46    47    2
    54    45    48    1
    55   124   123    1
    56   145   146    1
    57   145   147    1
    58     3     2    1
    59    30    32   ar
    60    30    31   ar
    61    32    34   ar
    62   135   136    1
    63   123   122    1
    64     7     6    1
    65    48    49    1
    66   151   161   am
    67   151   152    2
    68     6     8    1
    69     6     5    1
    70     2     5    1
    71     2     1    1
    72    31    33   ar
    73   161   162    1
    74    34    35   ar
    75   137   136   ar
    76   137   139   ar
    77   136   138   ar
    78   118   117    2
    79    49    50    1
    80   122   125    1
    81   122   121    1
    82   169   170    1
    83    33    35   ar
    84   139   140   ar
    85   125   126    1
    86   117   121   am
    87   117   116    1
    88   138   140   ar
    89   162   163    1
    90   162   165    1
    91    50    51    1
    92   163   164    2
    93   165   166    1
    94   166   168    1
    95   166   167    1
    96   128   126   ar
    97   128   130   ar
    98   170   173    1
    99   170   171    1
   100   126   127   ar
   101   173   175    1
   102   173   174    1
   103   116   115    1
   104   116   119    1
   105    51    52    2
   106   130   129   ar
   107   171   172    2
   108   174   176    1
   109   127   129   ar
   110   119   120    1
   111    54    52    1
   112    52    53    1
   113   110   109    2
   114    64    62   ar
   115    64    63   ar
   116    62    60   ar
   117   109   108    1
   118    63    61   ar
   119    60    61   ar
   120    60    59    1
   121    59    56    1
   122   177   178    1
   123   103   102    2
   124   188   187    2
   125   193   195   ar
   126   193   191   ar
   127   108   111    1
   128   108   107    1
   129   187   186    1
   130   112   114    1
   131   112   111    1
   132   112   113    1
   133   102   107   am
   134   102   101    1
   135   195   194   ar
   136   191   190   ar
   137    78    76    1
   138    56    57    1
   139    56    55    1
   140   178   181    1
   141   178   179    1
   142   182   181    1
   143   182   184    1
   144    57    58    2
   145   181   183    1
   146   101   100    1
   147   101   104    1
   148    77    76    1
   149   179   180    2
   150   194   192   ar
   151   190   192   ar
   152   190   189    1
   153   186   185    1
   154   186   189    1
   155    76    73    1
   156   100   106    1
   157   104   105    1
   158    71    69    1
   159    73    72    1
   160    73    74    1
   161    72    67   am
   162    69    70    1
   163    69    66    1
   164   106   105    1
   165    74    75    2
   166    67    66    1
   167    67    68    2
   168    91    89    1
   169    90    89    1
   170    66    65    1
   171    99    97    1
   172    83    80    1
   173    89    88    1
   174    88    85    1
   175    85    84    1
   176    85    86    1
   177    84    81   am
   178    97    96    1
   179    80    81    1
   180    80    79    1
   181    81    82    2
   182    98    96    1
   183    96    93    1
   184    86    87    2
   185    93    92    1
   186    93    94    1
   187    94    95    2
