@<TRIPOS>MOLECULE
tmp/1mbxD00.pdb
 98 97 0 0 0
SMALL
GASTEIGER

@<TRIPOS>ATOM
      1  N         37.0650   43.5860   31.7880 N.3    14  ASN14      -0.1225
      2  CA        37.7220   42.2720   31.8190 C.3    14  ASN14       0.1785
      3  C         37.2420   41.3870   32.9640 C.2    14  ASN14       0.2597
      4  O         36.7830   41.9190   33.9650 O.2    14  ASN14      -0.2718
      5  CB        39.2310   42.4940   31.9550 C.3    14  ASN14       0.1169
      6  CG        40.0510   41.1980   31.8090 C.2    14  ASN14       0.2627
      7  OD1       39.8110   40.3860   30.9260 O.2    14  ASN14      -0.2716
      8  ND2       41.0450   41.0320   32.6810 N.am   14  ASN14      -0.0877
      9  N         37.3030   40.0590   32.8020 N.am   15  ASP15      -0.1960
     10  CA        36.9800   39.1120   33.8830 C.3    15  ASP15       0.1840
     11  C         37.7910   37.8520   33.6050 C.2    15  ASP15       0.2622
     12  O         38.3310   37.7190   32.5050 O.2    15  ASP15      -0.2715
     13  CB        35.4830   38.7860   33.9880 C.3    15  ASP15       0.1450
     14  CG        34.9820   37.9490   32.8270 C.2    15  ASP15       0.3671
     15  OD1       35.3660   36.7710   32.6840 O.co2  15  ASP15      -0.2456
     16  OD2       34.2010   38.4990   32.0400 O.co2  15  ASP15      -0.2456
     17  N         37.8950   36.9420   34.5830 N.am   16  ASP16      -0.1957
     18  CA        38.7320   35.7450   34.3850 C.3    16  ASP16       0.1840
     19  C         38.0520   34.5090   33.8240 C.2    16  ASP16       0.2622
     20  O         38.7070   33.5030   33.5680 O.2    16  ASP16      -0.2715
     21  CB        39.4290   35.3820   35.6970 C.3    16  ASP16       0.1450
     22  CG        40.3530   36.5080   36.2070 C.2    16  ASP16       0.3671
     23  OD1       41.0180   37.1930   35.4020 O.co2  16  ASP16      -0.2456
     24  OD2       40.4030   36.7100   37.4260 O.co2  16  ASP16      -0.2456
     25  N         36.7460   34.5940   33.5910 N.am   17  TYR17      -0.1960
     26  CA        35.9820   33.4570   33.0920 C.3    17  TYR17       0.1771
     27  C         35.5830   33.4820   31.6580 C.2    17  TYR17       0.2620
     28  O         35.6900   32.4660   30.9700 O.2    17  TYR17      -0.2715
     29  CB        34.7310   33.3200   33.9330 C.3    17  TYR17       0.0574
     30  CG        35.0730   33.1760   35.3860 C.ar   17  TYR17      -0.0198
     31  CD1       35.3210   34.2990   36.1800 C.ar   17  TYR17      -0.0009
     32  CD2       35.2220   31.8980   35.9630 C.ar   17  TYR17      -0.0009
     33  CE1       35.7140   34.1690   37.5420 C.ar   17  TYR17       0.0417
     34  CE2       35.6120   31.7470   37.2960 C.ar   17  TYR17       0.0417
     35  CZ        35.8540   32.9030   38.0660 C.ar   17  TYR17       0.1957
     36  OH        36.2580   32.7460   39.3380 O.3    17  TYR17      -0.2866
     37  N         35.0980   34.6300   31.1950 N.am   18  THR18      -0.1937
     38  CA        34.6560   34.7080   29.8320 C.3    18  THR18       0.2013
     39  C         35.6530   34.2310   28.7720 C.2    18  THR18       0.2484
     40  O         36.7500   34.7650   28.6140 O.2    18  THR18      -0.2729
     41  CB        34.2300   36.1160   29.5200 C.3    18  THR18       0.1807
     42  OG1       33.2260   36.4910   30.4610 O.3    18  THR18      -0.2208
     43  CG2       33.6620   36.1940   28.0950 C.3    18  THR18       0.0379
     44  N         35.2590   33.2270   27.9930 N.am   19  PRO19      -0.2715
     45  CA        36.1660   32.7230   26.9500 C.3    19  PRO19       0.1536
     46  C         36.4770   33.8000   25.9000 C.2    19  PRO19       0.2598
     47  O         35.6760   34.6930   25.6390 O.2    19  PRO19      -0.2715
     48  CB        35.4010   31.5410   26.3370 C.3    19  PRO19       0.0310
     49  CG        34.3830   31.1720   27.4180 C.3    19  PRO19       0.0237
     50  CD        33.9940   32.4770   28.0420 C.3    19  PRO19       0.0939
     51  N         37.6390   33.6760   25.2890 N.am   20  MET20      -0.1978
     52  CA        38.0990   34.5790   24.2880 C.3    20  MET20       0.1605
     53  C         37.1210   34.7330   23.1130 C.2    20  MET20       0.2287
     54  O         36.7890   35.8530   22.7210 O.2    20  MET20      -0.2864
     55  CB        39.4640   34.1050   23.7850 C.3    20  MET20       0.0413
     56  CG        40.1180   35.0430   22.7870 C.3    20  MET20       0.0598
     57  SD        41.6420   34.3800   22.0660 S.3    20  MET20      -0.1393
     58  CE        42.7480   34.6270   23.6010 C.3    20  MET20       0.0692
     59  N         34.0940   37.0040   23.7770 N.3    23  VAL23      -0.1245
     60  CA        34.3570   38.4360   23.8170 C.3    23  VAL23       0.1561
     61  C         34.3960   38.9330   22.3830 C.2    23  VAL23       0.2260
     62  O         33.7810   39.9640   22.0570 O.2    23  VAL23      -0.2867
     63  CB        35.6770   38.7850   24.5250 C.3    23  VAL23       0.0252
     64  CG1       35.8770   40.3030   24.4650 C.3    23  VAL23       0.0019
     65  CG2       35.6620   38.2710   26.0300 C.3    23  VAL23       0.0019
     66  N         39.6340   42.9570   22.1040 N.3    42  MET42      -0.1230
     67  CA        39.6000   41.9210   23.0890 C.3    42  MET42       0.1702
     68  C         40.9170   41.9150   23.8870 C.2    42  MET42       0.2592
     69  O         40.9130   41.7510   25.0880 O.2    42  MET42      -0.2718
     70  CB        39.3150   40.5780   22.4070 C.3    42  MET42       0.0401
     71  CG        39.3210   39.3650   23.3280 C.3    42  MET42       0.0596
     72  SD        41.0350   38.8010   23.7080 S.3    42  MET42      -0.1393
     73  CE        41.5610   38.2060   22.0520 C.3    42  MET42       0.0692
     74  N         42.0400   42.1330   23.2080 N.am   43  LEU43      -0.1980
     75  CA        43.3500   42.1510   23.8620 C.3    43  LEU43       0.1596
     76  C         43.5050   43.3900   24.7510 C.2    43  LEU43       0.2287
     77  O         44.1500   43.3570   25.7940 O.2    43  LEU43      -0.2864
     78  CB        44.4810   42.0790   22.8120 C.3    43  LEU43       0.0297
     79  CG        44.7090   40.6890   22.1570 C.3    43  LEU43       0.0022
     80  CD1       45.7250   40.7880   21.0340 C.3    43  LEU43       0.0001
     81  CD2       45.2000   39.6670   23.1900 C.3    43  LEU43       0.0001
     82  N         41.0390   44.7670   26.2930 N.3    45  VAL45      -0.1231
     83  CA        40.2610   44.4760   27.4780 C.3    45  VAL45       0.1692
     84  C         41.1370   43.6580   28.4270 C.2    45  VAL45       0.2592
     85  O         41.1710   43.8960   29.6300 O.2    45  VAL45      -0.2718
     86  CB        38.9980   43.6180   27.1740 C.3    45  VAL45       0.0266
     87  CG1       38.3820   43.1390   28.4970 C.3    45  VAL45       0.0020
     88  CG2       37.9820   44.4450   26.3320 C.3    45  VAL45       0.0020
     89  N         41.8240   42.6820   27.8640 N.am   46  HIS46      -0.1976
     90  CA        42.6800   41.7710   28.6250 C.3    46  HIS46       0.1656
     91  C         43.8620   42.5000   29.3400 C.2    46  HIS46       0.2291
     92  O         44.1150   42.2780   30.5290 O.2    46  HIS46      -0.2864
     93  CB        43.2140   40.6780   27.6770 C.3    46  HIS46       0.0771
     94  CG        44.3920   39.9180   28.2120 C.ar   46  HIS46       0.0820
     95  ND1       44.2680   38.8380   29.0590 N.ar   46  HIS46      -0.2267
     96  CD2       45.7180   40.0490   27.9730 C.ar   46  HIS46       0.1154
     97  CE1       45.4590   38.3280   29.3120 C.ar   46  HIS46       0.1986
     98  NE2       46.3560   39.0480   28.6680 N.ar   46  HIS46      -0.2212
@<TRIPOS>BOND
     1    80    79    1
     2    73    72    1
     3    62    61    2
     4    57    56    1
     5    57    58    1
     6    66    67    1
     7    79    78    1
     8    79    81    1
     9    61    60    1
    10    70    67    1
    11    70    71    1
    12    54    53    2
    13    56    55    1
    14    78    75    1
    15    67    68    1
    16    53    52    1
    17    74    75    1
    18    74    68   am
    19    71    72    1
    20    59    60    1
    21    55    52    1
    22    60    63    1
    23    75    76    1
    24    68    69    2
    25    52    51    1
    26    64    63    1
    27    63    65    1
    28    76    77    2
    29    51    46   am
    30    47    46    2
    31    46    45    1
    32    82    83    1
    33    88    86    1
    34    48    45    1
    35    48    49    1
    36    45    44    1
    37    86    83    1
    38    86    87    1
    39    49    50    1
    40    83    84    1
    41    93    94    1
    42    93    90    1
    43    89    84   am
    44    89    90    1
    45    96    94   ar
    46    96    98   ar
    47    44    50    1
    48    44    39   am
    49    43    41    1
    50    94    95   ar
    51    84    85    2
    52    40    39    2
    53    90    91    1
    54    98    97   ar
    55    39    38    1
    56    95    97   ar
    57    91    92    2
    58    41    38    1
    59    41    42    1
    60    38    37    1
    61     7     6    2
    62    28    27    2
    63    37    27   am
    64    27    26    1
    65     1     2    1
    66     6     5    1
    67     6     8   am
    68     2     5    1
    69     2     3    1
    70    16    14   ar
    71    12    11    2
    72    15    14   ar
    73     9     3   am
    74     9    10    1
    75    14    13    1
    76     3     4    2
    77    26    25    1
    78    26    29    1
    79    20    19    2
    80    25    19   am
    81    11    10    1
    82    11    17   am
    83    19    18    1
    84    10    13    1
    85    29    30    1
    86    18    17    1
    87    18    21    1
    88    30    32   ar
    89    30    31   ar
    90    23    22   ar
    91    21    22    1
    92    32    34   ar
    93    31    33   ar
    94    22    24   ar
    95    34    35   ar
    96    33    35   ar
    97    35    36    1
