@<TRIPOS>MOLECULE
tmp/1mc0A00.pdb
 171 163 0 0 0
SMALL
GASTEIGER

@<TRIPOS>ATOM
      1  N        122.1560   58.4890  126.1980 N.3   208  ILE208     -0.1231
      2  CA       121.7710   57.4750  125.2300 C.3   208  ILE208      0.1692
      3  C        122.6740   56.2630  125.2900 C.2   208  ILE208      0.2592
      4  O        123.7220   56.2860  125.9240 O.2   208  ILE208     -0.2718
      5  CB       121.8150   58.0030  123.7770 C.3   208  ILE208      0.0266
      6  CG1      123.2360   58.3980  123.4200 C.3   208  ILE208      0.0019
      7  CG2      120.8710   59.1970  123.5970 C.3   208  ILE208      0.0020
      8  CD1      123.3160   59.0940  122.1010 C.3   208  ILE208      0.0001
      9  N        122.2420   55.2030  124.6160 N.am  209  CYS209     -0.1956
     10  CA       122.9800   53.9470  124.5490 C.3   209  CYS209      0.1843
     11  C        122.7230   53.2960  123.1940 C.2   209  CYS209      0.2626
     12  O        121.6460   53.4250  122.6130 O.2   209  CYS209     -0.2714
     13  CB       122.5390   53.0020  125.6690 C.3   209  CYS209      0.0997
     14  SG       120.7620   52.7110  125.7340 S.3   209  CYS209     -0.0797
     15  N        123.7240   52.5990  122.6870 N.am  210  SER210     -0.1950
     16  CA       123.5780   51.9600  121.4070 C.3   210  SER210      0.1924
     17  C        124.4240   50.7220  121.3860 C.2   210  SER210      0.2314
     18  O        125.4690   50.6550  122.0420 O.2   210  SER210     -0.2863
     19  CB       124.0480   52.8860  120.2960 C.3   210  SER210      0.2116
     20  OG       125.4590   52.9570  120.2940 O.3   210  SER210     -0.2180
     21  N        126.2300   47.9030  118.6960 N.3   212  PHE212     -0.1241
     22  CA       126.6770   47.7070  117.3250 C.3   212  PHE212      0.1605
     23  C        127.1100   46.2590  117.1880 C.2   212  PHE212      0.2264
     24  O        128.0790   45.8280  117.8170 O.2   212  PHE212     -0.2867
     25  CB       127.8750   48.6110  116.9790 C.3   212  PHE212      0.0534
     26  CG       127.5190   50.0590  116.7530 C.ar  212  PHE212     -0.0203
     27  CD1      127.0540   50.8540  117.7960 C.ar  212  PHE212     -0.0042
     28  CD2      127.6670   50.6300  115.4980 C.ar  212  PHE212     -0.0042
     29  CE1      126.7410   52.1990  117.5920 C.ar  212  PHE212     -0.0003
     30  CE2      127.3570   51.9730  115.2800 C.ar  212  PHE212     -0.0003
     31  CZ       126.8930   52.7580  116.3300 C.ar  212  PHE212     -0.0000
     32  N        119.9780   51.9050  118.7720 N.3   224  PHE224     -0.1227
     33  CA       120.4700   53.2490  118.5860 C.3   224  PHE224      0.1736
     34  C        119.5340   54.2110  119.3080 C.2   224  PHE224      0.2595
     35  O        118.3260   54.1750  119.1140 O.2   224  PHE224     -0.2718
     36  CB       120.4900   53.5360  117.0900 C.3   224  PHE224      0.0547
     37  CG       121.3930   54.6520  116.6900 C.ar  224  PHE224     -0.0202
     38  CD1      122.7690   54.4560  116.6240 C.ar  224  PHE224     -0.0042
     39  CD2      120.8700   55.8980  116.3550 C.ar  224  PHE224     -0.0042
     40  CE1      123.6150   55.4870  116.2250 C.ar  224  PHE224     -0.0003
     41  CE2      121.6980   56.9310  115.9590 C.ar  224  PHE224     -0.0003
     42  CZ       123.0750   56.7290  115.8910 C.ar  224  PHE224     -0.0000
     43  N        120.1030   55.0710  120.1400 N.am  225  ASP225     -0.1974
     44  CA       119.3300   56.0350  120.9060 C.3   225  ASP225      0.1709
     45  C        118.3470   55.3640  121.8470 C.2   225  ASP225      0.2293
     46  O        117.2990   55.9130  122.1520 O.2   225  ASP225     -0.2864
     47  CB       118.5880   57.0110  119.9870 C.3   225  ASP225      0.1436
     48  CG       119.5310   57.9370  119.2400 C.2   225  ASP225      0.3671
     49  OD1      120.5470   58.3640  119.8310 O.co2 225  ASP225     -0.2456
     50  OD2      119.2520   58.2500  118.0670 O.co2 225  ASP225     -0.2456
     51  N        129.1310   51.1760  109.8950 N.3   238  ILE238     -0.1245
     52  CA       130.4340   51.8270  109.9210 C.3   238  ILE238      0.1561
     53  C        131.5660   50.8080  109.8190 C.2   238  ILE238      0.2260
     54  O        131.3930   49.6500  110.1820 O.2   238  ILE238     -0.2867
     55  CB       130.5820   52.6480  111.2340 C.3   238  ILE238      0.0252
     56  CG1      130.7270   54.1290  110.9000 C.3   238  ILE238      0.0019
     57  CG2      131.7680   52.1560  112.0600 C.3   238  ILE238      0.0019
     58  CD1      130.7780   55.0110  112.1210 C.3   238  ILE238      0.0001
     59  N        137.0630   51.5710  112.6480 N.3   242  GLN242     -0.1231
     60  CA       137.0730   53.0060  112.8980 C.3   242  GLN242      0.1698
     61  C        136.4230   53.4590  114.2070 C.2   242  GLN242      0.2593
     62  O        135.6050   52.7510  114.8050 O.2   242  GLN242     -0.2718
     63  CB       136.4100   53.7340  111.7340 C.3   242  GLN242      0.0381
     64  CG       136.0000   55.1460  112.0610 C.3   242  GLN242      0.0905
     65  CD       135.2330   55.7750  110.9430 C.2   242  GLN242      0.2608
     66  OE1      135.8170   56.2620  109.9770 O.2   242  GLN242     -0.2717
     67  NE2      133.9090   55.7540  111.0500 N.am  242  GLN242     -0.0878
     68  N        136.8050   54.6590  114.6340 N.am  243  GLY243     -0.1942
     69  CA       136.2710   55.2330  115.8490 C.3   243  GLY243      0.2014
     70  C        136.5400   54.4020  117.0820 C.2   243  GLY243      0.2639
     71  O        137.3300   53.4540  117.0650 O.2   243  GLY243     -0.2714
     72  N        135.8680   54.7780  118.1610 N.am  244  ILE244     -0.1963
     73  CA       135.9800   54.1030  119.4400 C.3   244  ILE244      0.1727
     74  C        135.2620   52.7600  119.3590 C.2   244  ILE244      0.2616
     75  O        135.7370   51.7580  119.8960 O.2   244  ILE244     -0.2715
     76  CB       135.3600   54.9720  120.5320 C.3   244  ILE244      0.0290
     77  CG1      135.9680   56.3690  120.4410 C.3   244  ILE244      0.0022
     78  CG2      135.6070   54.3630  121.9040 C.3   244  ILE244      0.0023
     79  CD1      135.0910   57.4380  121.0000 C.3   244  ILE244      0.0001
     80  N        134.1170   52.7470  118.6810 N.am  245  ALA245     -0.1977
     81  CA       133.3450   51.5210  118.5050 C.3   245  ALA245      0.1597
     82  C        134.2590   50.4810  117.8740 C.2   245  ALA245      0.2287
     83  O        134.4310   49.3790  118.3970 O.2   245  ALA245     -0.2864
     84  CB       132.1530   51.7800  117.6000 C.3   245  ALA245      0.0319
     85  N        138.2850   59.2210  117.9340 N.3   266  PHE266     -0.1227
     86  CA       136.8780   59.5640  117.7870 C.3   266  PHE266      0.1736
     87  C        136.4590   59.8830  116.3530 C.2   266  PHE266      0.2595
     88  O        137.1360   60.6260  115.6470 O.2   266  PHE266     -0.2718
     89  CB       136.5350   60.7460  118.6900 C.3   266  PHE266      0.0547
     90  CG       135.1290   61.2510  118.5190 C.ar  266  PHE266     -0.0202
     91  CD1      134.0460   60.3980  118.6710 C.ar  266  PHE266     -0.0042
     92  CD2      134.8870   62.5830  118.2220 C.ar  266  PHE266     -0.0042
     93  CE1      132.7450   60.8650  118.5310 C.ar  266  PHE266     -0.0003
     94  CE2      133.5900   63.0570  118.0800 C.ar  266  PHE266     -0.0003
     95  CZ       132.5190   62.1960  118.2350 C.ar  266  PHE266     -0.0000
     96  N        135.3310   59.3120  115.9360 N.am  267  TYR267     -0.1976
     97  CA       134.7790   59.5390  114.6010 C.3   267  TYR267      0.1639
     98  C        133.5470   60.4460  114.7020 C.2   267  TYR267      0.2290
     99  O        132.4610   60.0140  115.0900 O.2   267  TYR267     -0.2864
    100  CB       134.3830   58.2120  113.9430 C.3   267  TYR267      0.0560
    101  CG       133.5980   58.3920  112.6560 C.ar  267  TYR267     -0.0198
    102  CD1      134.2180   58.8370  111.4890 C.ar  267  TYR267     -0.0009
    103  CD2      132.2280   58.1380  112.6130 C.ar  267  TYR267     -0.0009
    104  CE1      133.4910   59.0210  110.3100 C.ar  267  TYR267      0.0417
    105  CE2      131.4920   58.3210  111.4420 C.ar  267  TYR267      0.0417
    106  CZ       132.1300   58.7610  110.2950 C.ar  267  TYR267      0.1957
    107  OH       131.4020   58.9340  109.1400 O.3   267  TYR267     -0.2866
    108  N        129.1090   60.2770  112.5640 N.3   270  VAL270     -0.1231
    109  CA       127.7730   59.9840  113.0570 C.3   270  VAL270      0.1692
    110  C        127.1070   61.2110  113.6660 C.2   270  VAL270      0.2592
    111  O        125.9110   61.4230  113.4860 O.2   270  VAL270     -0.2718
    112  CB       127.8220   58.8640  114.1060 C.3   270  VAL270      0.0266
    113  CG1      126.4170   58.3760  114.4220 C.3   270  VAL270      0.0020
    114  CG2      128.6950   57.7330  113.5950 C.3   270  VAL270      0.0020
    115  N        127.8770   62.0200  114.3870 N.am  271  ASP271     -0.1974
    116  CA       127.3230   63.2180  115.0110 C.3   271  ASP271      0.1709
    117  C        126.8620   64.2720  114.0040 C.2   271  ASP271      0.2293
    118  O        125.6810   64.6190  113.9700 O.2   271  ASP271     -0.2864
    119  CB       128.3330   63.8590  115.9720 C.3   271  ASP271      0.1436
    120  CG       128.4190   63.1430  117.3050 C.2   271  ASP271      0.3671
    121  OD1      127.3670   62.7610  117.8520 O.co2 271  ASP271     -0.2456
    122  OD2      129.5420   62.9790  117.8210 O.co2 271  ASP271     -0.2456
    123  N        123.6230   63.0060  112.3660 N.3   274  THR274     -0.1218
    124  CA       122.4150   63.0330  113.1840 C.3   274  THR274      0.1862
    125  C        122.1730   64.3980  113.8020 C.2   274  THR274      0.2287
    126  O        121.0490   64.7190  114.1780 O.2   274  THR274     -0.2866
    127  CB       122.5170   62.0550  114.3570 C.3   274  THR274      0.1770
    128  OG1      123.5590   62.4940  115.2360 O.3   274  THR274     -0.2211
    129  CG2      122.8400   60.6510  113.8700 C.3   274  THR274      0.0375
    130  N        123.7890   65.3590  116.5480 N.3   276  PHE276     -0.1241
    131  CA       123.9130   65.0940  117.9750 C.3   276  PHE276      0.1605
    132  C        125.3900   65.2560  118.3210 C.2   276  PHE276      0.2264
    133  O        126.2610   64.9790  117.4920 O.2   276  PHE276     -0.2867
    134  CB       123.4540   63.6610  118.2650 C.3   276  PHE276      0.0534
    135  CG       123.6370   63.2350  119.6930 C.ar  276  PHE276     -0.0203
    136  CD1      122.8380   63.7640  120.7010 C.ar  276  PHE276     -0.0042
    137  CD2      124.6110   62.2990  120.0290 C.ar  276  PHE276     -0.0042
    138  CE1      123.0050   63.3650  122.0220 C.ar  276  PHE276     -0.0003
    139  CE2      124.7850   61.8970  121.3410 C.ar  276  PHE276     -0.0003
    140  CZ       123.9790   62.4300  122.3420 C.ar  276  PHE276     -0.0000
    141  N        128.5630   64.2030  120.7930 N.3   278  THR278     -0.1218
    142  CA       129.0820   63.2590  121.7670 C.3   278  THR278      0.1862
    143  C        130.1630   63.8430  122.6930 C.2   278  THR278      0.2287
    144  O        131.2620   64.1920  122.2570 O.2   278  THR278     -0.2866
    145  CB       129.6590   62.0370  121.0590 C.3   278  THR278      0.1770
    146  OG1      128.7210   61.5640  120.0860 O.3   278  THR278     -0.2211
    147  CG2      129.9370   60.9410  122.0610 C.3   278  THR278      0.0375
    148  N        132.1690   58.8790  126.0620 N.3   281  ILE281     -0.1245
    149  CA       131.8270   57.5850  125.4970 C.3   281  ILE281      0.1561
    150  C        132.4310   56.4510  126.3070 C.2   281  ILE281      0.2260
    151  O        133.6460   56.3710  126.4710 O.2   281  ILE281     -0.2867
    152  CB       132.3200   57.4580  124.0540 C.3   281  ILE281      0.0252
    153  CG1      131.5570   58.4320  123.1690 C.3   281  ILE281      0.0019
    154  CG2      132.1140   56.0440  123.5480 C.3   281  ILE281      0.0019
    155  CD1      131.8900   58.3100  121.7080 C.3   281  ILE281      0.0001
    156  N        127.7920   51.0020  123.5230 N.3   298  GLU298     -0.1245
    157  CA       128.2220   52.1830  124.2180 C.3   298  GLU298      0.1567
    158  C        127.1740   53.0110  124.9100 C.2   298  GLU298      0.2260
    159  O        126.0080   53.1030  124.5060 O.2   298  GLU298     -0.2867
    160  CB       129.0920   53.0760  123.3340 C.3   298  GLU298      0.0388
    161  CG       128.6680   53.2810  121.9100 C.3   298  GLU298      0.1160
    162  CD       129.8410   53.8040  121.0780 C.2   298  GLU298      0.3649
    163  OE1      130.9010   53.1430  121.0720 O.co2 298  GLU298     -0.2457
    164  OE2      129.7180   54.8670  120.4400 O.co2 298  GLU298     -0.2457
    165  N        126.5480   56.7610  126.1460 N.3   300  VAL300     -0.1245
    166  CA       126.9880   58.0610  125.6730 C.3   300  VAL300      0.1561
    167  C        126.4930   59.2620  126.4560 C.2   300  VAL300      0.2260
    168  O        125.2960   59.4080  126.6810 O.2   300  VAL300     -0.2867
    169  CB       126.5930   58.2450  124.2130 C.3   300  VAL300      0.0252
    170  CG1      126.8910   59.6560  123.7640 C.3   300  VAL300      0.0019
    171  CG2      127.3520   57.2480  123.3600 C.3   300  VAL300      0.0019
@<TRIPOS>BOND
     1   107   106    1
     2    53    52    1
     3    53    54    2
     4    51    52    1
     5    52    55    1
     6    66    65    2
     7   106   104   ar
     8   106   105   ar
     9   104   102   ar
    10    56    55    1
    11    56    58    1
    12    65    67   am
    13    65    64    1
    14    55    57    1
    15   105   103   ar
    16   102   101   ar
    17    63    64    1
    18    63    60    1
    19   123   124    1
    20   108   109    1
    21   103   101   ar
    22    59    60    1
    23   101   100    1
    24    60    61    1
    25   109   110    1
    26   109   112    1
    27   124   125    1
    28   124   127    1
    29   111   110    2
    30   114   112    1
    31   110   115   am
    32   125   126    2
    33   129   127    1
    34   100    97    1
    35   118   117    2
    36   117   116    1
    37   112   113    1
    38    61    68   am
    39    61    62    2
    40   127   128    1
    41   115   116    1
    42    97    98    1
    43    97    96    1
    44    68    69    1
    45    98    99    2
    46   116   119    1
    47    30    28   ar
    48    30    31   ar
    49    28    26   ar
    50    88    87    2
    51    69    70    1
    52    42    41   ar
    53    42    40   ar
    54    96    87   am
    55    41    39   ar
    56   119   120    1
    57    40    38   ar
    58    31    29   ar
    59    87    86    1
    60    39    37   ar
    61   130   131    1
    62    38    37   ar
    63    37    36    1
    64    26    25    1
    65    26    27   ar
    66    25    22    1
    67    71    70    2
    68    70    72   am
    69    36    33    1
    70    23    22    1
    71    23    24    2
    72   120   122   ar
    73   120   121   ar
    74    22    21    1
    75   133   132    2
    76    29    27   ar
    77    84    81    1
    78    86    85    1
    79    86    89    1
    80    82    83    2
    81    82    81    1
    82   131   134    1
    83   131   132    1
    84    50    48   ar
    85    94    92   ar
    86    94    95   ar
    87    72    73    1
    88    92    90   ar
    89    95    93   ar
    90   134   135    1
    91    81    80    1
    92    90    91   ar
    93    90    89    1
    94    93    91   ar
    95    33    32    1
    96    33    34    1
    97    80    74   am
    98    35    34    2
    99    48    49   ar
   100    48    47    1
   101    34    43   am
   102    74    73    1
   103    74    75    2
   104    73    76    1
   105   135   137   ar
   106   135   136   ar
   107    47    44    1
   108   137   139   ar
   109   146   145    1
   110    43    44    1
   111    20    19    1
   112    19    16    1
   113   164   162   ar
   114    77    76    1
   115    77    79    1
   116    76    78    1
   117   136   138   ar
   118   141   142    1
   119    44    45    1
   120   145   142    1
   121   145   147    1
   122   163   162   ar
   123   162   161    1
   124   139   140   ar
   125    17    16    1
   126    17    18    2
   127    16    15    1
   128   155   153    1
   129   142   143    1
   130    45    46    2
   131   161   160    1
   132   138   140   ar
   133     8     6    1
   134   144   143    2
   135    12    11    2
   136    15    11   am
   137   153   152    1
   138    11    10    1
   139   160   157    1
   140   171   169    1
   141     6     5    1
   142   156   157    1
   143   154   152    1
   144     7     5    1
   145   170   169    1
   146     5     2    1
   147   152   149    1
   148   169   166    1
   149   157   158    1
   150   159   158    2
   151    10     9    1
   152    10    13    1
   153     9     3   am
   154     2     3    1
   155     2     1    1
   156     3     4    2
   157   149   148    1
   158   149   150    1
   159    13    14    1
   160   166   165    1
   161   166   167    1
   162   150   151    2
   163   167   168    2
