@<TRIPOS>MOLECULE
tmp/1mc1A02.pdb
 137 130 0 0 0
SMALL
GASTEIGER

@<TRIPOS>ATOM
      1  N         -7.2450   81.0950   64.2660 N.3   307  ILE307     -0.1245
      2  CA        -7.8970   82.1860   65.0090 C.3   307  ILE307      0.1561
      3  C         -7.5140   82.1530   66.4830 C.2   307  ILE307      0.2260
      4  O         -7.2330   83.1950   67.0860 O.2   307  ILE307     -0.2867
      5  CB        -9.4420   82.0940   64.9140 C.3   307  ILE307      0.0252
      6  CG1       -9.8860   82.4020   63.4790 C.3   307  ILE307      0.0019
      7  CG2      -10.0990   83.0480   65.9100 C.3   307  ILE307      0.0019
      8  CD1       -9.4730   83.7780   62.9950 C.3   307  ILE307      0.0001
      9  N         -4.3650   83.7120   67.0200 N.3   310  TYR310     -0.1241
     10  CA        -4.4190   85.1720   66.9560 C.3   310  TYR310      0.1605
     11  C         -4.9870   85.7270   68.2660 C.2   310  TYR310      0.2264
     12  O         -4.6180   86.8160   68.6990 O.2   310  TYR310     -0.2867
     13  CB        -5.3210   85.6220   65.8030 C.3   310  TYR310      0.0534
     14  CG        -4.8410   85.2060   64.4280 C.ar  310  TYR310     -0.0201
     15  CD1       -5.7380   85.0900   63.3580 C.ar  310  TYR310     -0.0009
     16  CD2       -3.4900   84.9500   64.1850 C.ar  310  TYR310     -0.0009
     17  CE1       -5.2970   84.7310   62.0800 C.ar  310  TYR310      0.0417
     18  CE2       -3.0420   84.5930   62.9130 C.ar  310  TYR310      0.0417
     19  CZ        -3.9450   84.4870   61.8710 C.ar  310  TYR310      0.1957
     20  OH        -3.4810   84.1440   60.6230 O.3   310  TYR310     -0.2866
     21  N         -7.8210   97.7360   66.8310 N.3   331  GLY331     -0.1210
     22  CA        -7.7070   97.9310   65.3950 C.3   331  GLY331      0.1956
     23  C         -7.8540   96.5840   64.6960 C.2   331  GLY331      0.2612
     24  O         -7.4100   96.4060   63.5650 O.2   331  GLY331     -0.2717
     25  N         -8.4830   95.6330   65.3840 N.am  332  TYR332     -0.1962
     26  CA        -8.6970   94.2820   64.8610 C.3   332  TYR332      0.1771
     27  C         -9.6280   94.2430   63.6540 C.2   332  TYR332      0.2620
     28  O        -10.6300   94.9590   63.6170 O.2   332  TYR332     -0.2715
     29  CB        -9.2990   93.3780   65.9490 C.3   332  TYR332      0.0574
     30  CG        -9.2110   91.8980   65.6180 C.ar  332  TYR332     -0.0198
     31  CD1       -8.1310   91.1260   66.0650 C.ar  332  TYR332     -0.0009
     32  CD2      -10.1590   91.2870   64.7880 C.ar  332  TYR332     -0.0009
     33  CE1       -7.9910   89.7770   65.6840 C.ar  332  TYR332      0.0417
     34  CE2      -10.0260   89.9450   64.4000 C.ar  332  TYR332      0.0417
     35  CZ        -8.9370   89.2010   64.8510 C.ar  332  TYR332      0.1957
     36  OH        -8.7770   87.8940   64.4430 O.3   332  TYR332     -0.2866
     37  N         -9.2950   93.4080   62.6700 N.am  333  GLY333     -0.1954
     38  CA       -10.1520   93.2540   61.5020 C.3   333  GLY333      0.1869
     39  C         -9.9060   94.1100   60.2750 C.2   333  GLY333      0.2309
     40  O        -10.4880   93.8600   59.2160 O.2   333  GLY333     -0.2863
     41  N         -7.3140   94.2720   58.3690 N.3   335  ASP335     -0.1225
     42  CA        -6.6810   93.5350   57.2860 C.3   335  ASP335      0.1805
     43  C         -7.6290   92.7100   56.4330 C.2   335  ASP335      0.2597
     44  O         -7.3590   92.4770   55.2570 O.2   335  ASP335     -0.2718
     45  CB        -5.5830   92.6220   57.8300 C.3   335  ASP335      0.1424
     46  CG        -4.4940   93.3940   58.5380 C.2   335  ASP335      0.3668
     47  OD1       -4.5650   93.5280   59.7860 O.co2 335  ASP335     -0.2456
     48  OD2       -3.5770   93.8810   57.8420 O.co2 335  ASP335     -0.2456
     49  N         -8.7360   92.2670   57.0160 N.am  336  ILE336     -0.1980
     50  CA        -9.6810   91.4390   56.2730 C.3   336  ILE336      0.1595
     51  C        -10.2500   92.1180   55.0230 C.2   336  ILE336      0.2287
     52  O        -10.1070   91.6020   53.9150 O.2   336  ILE336     -0.2864
     53  CB       -10.8190   90.9530   57.1890 C.3   336  ILE336      0.0276
     54  CG1      -10.2100   90.2030   58.3900 C.3   336  ILE336      0.0022
     55  CG2      -11.7640   90.0390   56.4000 C.3   336  ILE336      0.0022
     56  CD1      -11.2200   89.7080   59.4370 C.3   336  ILE336      0.0001
     57  N         -2.8160   90.6350   54.0640 N.3   341  MET341     -0.1245
     58  CA        -1.8350   89.5560   53.8920 C.3   341  MET341      0.1570
     59  C         -1.2750   89.5580   52.4670 C.2   341  MET341      0.2261
     60  O         -0.3080   88.8550   52.1660 O.2   341  MET341     -0.2867
     61  CB        -2.4800   88.1940   54.1720 C.3   341  MET341      0.0387
     62  CG        -3.2510   88.1250   55.4740 C.3   341  MET341      0.0595
     63  SD        -2.3190   88.8690   56.8140 S.3   341  MET341     -0.1393
     64  CE        -0.9550   87.6890   56.9770 C.3   341  MET341      0.0692
     65  N        -12.4150   85.6790   52.2840 N.3   357  ASP357     -0.1239
     66  CA       -12.4260   85.9940   53.7100 C.3   357  ASP357      0.1674
     67  C        -13.7750   86.5440   54.1480 C.2   357  ASP357      0.2266
     68  O        -14.3290   86.1210   55.1620 O.2   357  ASP357     -0.2867
     69  CB       -11.3300   87.0040   54.0380 C.3   357  ASP357      0.1410
     70  CG        -9.9640   86.3710   54.0790 C.2   357  ASP357      0.3668
     71  OD1       -8.9650   87.1110   54.0820 O.co2 357  ASP357     -0.2456
     72  OD2       -9.8860   85.1270   54.1120 O.co2 357  ASP357     -0.2456
     73  N        -16.3690   83.8850   54.5980 N.3   360  THR360     -0.1203
     74  CA       -16.1320   82.7970   55.5530 C.3   360  THR360      0.1994
     75  C        -15.7750   83.1630   57.0010 C.2   360  THR360      0.2617
     76  O        -15.3280   82.3010   57.7640 O.2   360  THR360     -0.2717
     77  CB       -15.0260   81.8810   55.0040 C.3   360  THR360      0.1784
     78  OG1      -13.8570   82.6690   54.7230 O.3   360  THR360     -0.2211
     79  CG2      -15.4830   81.2170   53.7090 C.3   360  THR360      0.0376
     80  N        -16.0000   84.4180   57.3890 N.am  361  PHE361     -0.1975
     81  CA       -15.6770   84.8710   58.7450 C.3   361  PHE361      0.1639
     82  C        -16.6670   84.3970   59.8000 C.2   361  PHE361      0.2290
     83  O        -16.3080   84.1790   60.9580 O.2   361  PHE361     -0.2864
     84  CB       -15.6150   86.4020   58.8040 C.3   361  PHE361      0.0560
     85  CG       -16.9640   87.0750   58.6770 C.ar  361  PHE361     -0.0200
     86  CD1      -17.5020   87.3720   57.4280 C.ar  361  PHE361     -0.0042
     87  CD2      -17.6920   87.4170   59.8140 C.ar  361  PHE361     -0.0042
     88  CE1      -18.7570   87.9940   57.3120 C.ar  361  PHE361     -0.0003
     89  CE2      -18.9440   88.0370   59.7090 C.ar  361  PHE361     -0.0003
     90  CZ       -19.4750   88.3320   58.4550 C.ar  361  PHE361     -0.0000
     91  N        -16.2810   82.1290   63.2890 N.3   364  LEU364     -0.1245
     92  CA       -14.9370   82.1560   63.8750 C.3   364  LEU364      0.1561
     93  C        -14.8770   82.8150   65.2450 C.2   364  LEU364      0.2260
     94  O        -13.9440   82.5680   66.0180 O.2   364  LEU364     -0.2867
     95  CB       -13.9590   82.8760   62.9470 C.3   364  LEU364      0.0270
     96  CG       -13.8290   82.2750   61.5490 C.3   364  LEU364      0.0019
     97  CD1      -12.7290   83.0090   60.7990 C.3   364  LEU364      0.0001
     98  CD2      -13.5110   80.7860   61.6510 C.3   364  LEU364      0.0001
     99  N        -13.9220   85.5290   66.2000 N.3   366  GLU366     -0.1245
    100  CA       -12.6840   86.2330   66.4970 C.3   366  GLU366      0.1567
    101  C        -12.8630   87.5970   67.1420 C.2   366  GLU366      0.2260
    102  O        -11.9360   88.1120   67.7720 O.2   366  GLU366     -0.2867
    103  CB       -11.8390   86.3710   65.2360 C.3   366  GLU366      0.0388
    104  CG       -12.4140   87.2530   64.1690 C.3   366  GLU366      0.1160
    105  CD       -11.7640   86.9910   62.8150 C.2   366  GLU366      0.3649
    106  OE1      -10.5200   86.9940   62.7470 O.co2 366  GLU366     -0.2457
    107  OE2      -12.5040   86.7770   61.8310 O.co2 366  GLU366     -0.2457
    108  N          2.9810   95.5100   57.4870 N.3   427  LYS427     -0.1245
    109  CA         2.0190   94.7610   58.3290 C.3   427  LYS427      0.1561
    110  C          2.6660   93.5810   59.0740 C.2   427  LYS427      0.2260
    111  O          3.5330   92.8960   58.5510 O.2   427  LYS427     -0.2867
    112  CB         0.9170   94.1300   57.4350 C.3   427  LYS427      0.0271
    113  CG        -0.2480   93.5330   58.1620 C.3   427  LYS427      0.0035
    114  CD        -0.0510   92.1730   58.7540 C.3   427  LYS427      0.0206
    115  CE        -1.2840   91.5990   59.4100 C.3   427  LYS427      0.1093
    116  NZ        -1.8000   92.3960   60.5480 N.3   427  LYS427     -0.1314
    117  N          1.3000   90.4440   61.9520 N.3   429  GLY429     -0.1270
    118  CA         0.2630   89.7000   62.6300 C.3   429  GLY429      0.1605
    119  C          0.6090   89.2570   64.0510 C.3   429  GLY429      0.2451
    120  O          1.8420   89.3940   64.5280 O.3   429  GLY429     -0.2020
    121  N         -0.2770   89.6830   64.9590 N.3   430  VAL430     -0.1800
    122  CA         0.0970   89.7370   66.3640 C.3   430  VAL430      0.1529
    123  C          0.8060   88.4430   66.8350 C.2   430  VAL430      0.2576
    124  O          1.8360   88.6500   67.5350 O.2   430  VAL430     -0.2718
    125  CB        -1.0600   90.1330   67.2450 C.3   430  VAL430      0.0250
    126  CG1       -0.8300   90.0760   68.7290 C.3   430  VAL430      0.0019
    127  CG2       -1.5910   91.5510   66.9140 C.3   430  VAL430      0.0019
    128  N          0.5730   87.3140   66.2710 N.am  431  HIS431     -0.1976
    129  CA         1.1620   86.0750   66.0810 C.3   431  HIS431      0.1656
    130  C          2.5800   85.9420   65.6360 C.2   431  HIS431      0.2291
    131  O          3.3210   85.0120   66.0180 O.2   431  HIS431     -0.2864
    132  CB         0.2310   85.0570   65.4530 C.3   431  HIS431      0.0771
    133  CG        -0.1170   85.3180   64.0230 C.ar  431  HIS431      0.0820
    134  ND1       -1.1890   86.0120   63.5550 N.ar  431  HIS431     -0.2267
    135  CD2        0.5720   84.8880   62.9160 C.ar  431  HIS431      0.1154
    136  CE1       -1.1730   85.9990   62.2270 C.ar  431  HIS431      0.1986
    137  NE2       -0.1130   85.3260   61.8180 N.ar  431  HIS431     -0.2212
@<TRIPOS>BOND
     1    60    59    2
     2    65    66    1
     3    59    58    1
     4    79    77    1
     5    66    69    1
     6    66    67    1
     7    58    57    1
     8    58    61    1
     9    52    51    2
    10    69    70    1
    11    70    71   ar
    12    70    72   ar
    13    67    68    2
    14    61    62    1
    15    73    74    1
    16    78    77    1
    17    77    74    1
    18    51    50    1
    19    44    43    2
    20    62    63    1
    21    74    75    1
    22    50    49    1
    23    50    53    1
    24    55    53    1
    25    43    49   am
    26    43    42    1
    27    63    64    1
    28    75    80   am
    29    75    76    2
    30    53    54    1
    31    42    45    1
    32    42    41    1
    33    88    86   ar
    34    88    90   ar
    35    80    81    1
    36    86    85   ar
    37   112   113    1
    38   112   109    1
    39   108   109    1
    40    45    46    1
    41    48    46   ar
    42   113   114    1
    43   109   110    1
    44    54    56    1
    45    90    89   ar
    46    46    47   ar
    47   111   110    2
    48    85    84    1
    49    85    87   ar
    50    81    84    1
    51    81    82    1
    52   114   115    1
    53    40    39    2
    54   115   116    1
    55    89    87   ar
    56    82    83    2
    57    39    38    1
    58    20    19    1
    59    97    96    1
    60    38    37    1
    61    96    98    1
    62    96    95    1
    63   137   136   ar
    64   137   135   ar
    65   107   105   ar
    66    19    17   ar
    67    19    18   ar
    68   117   118    1
    69    17    15   ar
    70   136   134   ar
    71   118   119    1
    72    37    27   am
    73   106   105   ar
    74   105   104    1
    75    18    16   ar
    76   135   133   ar
    77    95    92    1
    78     8     6    1
    79    91    92    1
    80    15    14   ar
    81     6     5    1
    82   134   133   ar
    83    24    23    2
    84    28    27    2
    85    27    26    1
    86    92    93    1
    87   133   132    1
    88   119   120    1
    89   119   121    1
    90   104   103    1
    91    16    14   ar
    92     1     2    1
    93    34    32   ar
    94    34    35   ar
    95    14    13    1
    96    36    35    1
    97    23    25   am
    98    23    22    1
    99    32    30   ar
   100    35    33   ar
   101    26    25    1
   102    26    29    1
   103     5     2    1
   104     5     7    1
   105   121   122    1
   106     2     3    1
   107   103   100    1
   108    93    94    2
   109    22    21    1
   110   132   129    1
   111    30    29    1
   112    30    31   ar
   113   130   131    2
   114   130   129    1
   115    33    31   ar
   116    13    10    1
   117   129   128    1
   118    99   100    1
   119   128   123   am
   120   122   123    1
   121   122   125    1
   122     3     4    2
   123   100   101    1
   124   123   124    2
   125   127   125    1
   126    10     9    1
   127    10    11    1
   128   101   102    2
   129   125   126    1
   130    11    12    2
