@<TRIPOS>MOLECULE
tmp/1mc1A01.pdb
 176 168 0 0 0
SMALL
GASTEIGER

@<TRIPOS>ATOM
      1  N         -5.6990   99.0620   72.6650 N.3   231  VAL231     -0.1231
      2  CA        -4.6390   98.0650   72.6150 C.3   231  VAL231      0.1692
      3  C         -3.8290   98.4230   71.3840 C.2   231  VAL231      0.2592
      4  O         -4.2280   98.1440   70.2520 O.2   231  VAL231     -0.2718
      5  CB        -5.2080   96.6420   72.4770 C.3   231  VAL231      0.0266
      6  CG1       -5.8040   96.2040   73.7930 C.3   231  VAL231      0.0020
      7  CG2       -6.2800   96.6110   71.3950 C.3   231  VAL231      0.0020
      8  N         -2.6890   99.0570   71.6340 N.am  232  LEU232     -0.1966
      9  CA        -1.7930   99.5460   70.5930 C.3   232  LEU232      0.1728
     10  C         -0.6700   98.5830   70.2570 C.2   232  LEU232      0.2616
     11  O         -0.0410   98.0100   71.1450 O.2   232  LEU232     -0.2715
     12  CB        -1.2040  100.8820   71.0520 C.3   232  LEU232      0.0311
     13  CG        -0.4270  101.7460   70.0700 C.3   232  LEU232      0.0022
     14  CD1       -1.2790  101.9910   68.8370 C.3   232  LEU232      0.0001
     15  CD2       -0.0490  103.0690   70.7480 C.3   232  LEU232      0.0001
     16  N         -0.4030   98.4150   68.9710 N.am  233  SER233     -0.1950
     17  CA         0.6660   97.5230   68.5550 C.3   233  SER233      0.1924
     18  C          1.7180   98.2710   67.7600 C.2   233  SER233      0.2314
     19  O          2.7970   97.7450   67.5030 O.2   233  SER233     -0.2863
     20  CB         0.1260   96.3930   67.6890 C.3   233  SER233      0.2116
     21  OG        -0.2060   96.8800   66.4010 O.3   233  SER233     -0.2180
     22  N         -3.2080   99.9510   61.7120 N.3   237  ASP237     -0.1225
     23  CA        -4.5870   99.7350   62.1330 C.3   237  ASP237      0.1805
     24  C         -4.8880  100.2770   63.5430 C.2   237  ASP237      0.2598
     25  O         -5.6850  101.2080   63.6900 O.2   237  ASP237     -0.2718
     26  CB        -4.9370   98.2360   62.0490 C.3   237  ASP237      0.1424
     27  CG        -4.6890   97.6550   60.6670 C.2   237  ASP237      0.3668
     28  OD1       -4.6150   98.4350   59.6890 O.co2 237  ASP237     -0.2456
     29  OD2       -4.5780   96.4120   60.5480 O.co2 237  ASP237     -0.2456
     30  N         -4.2530   99.7030   64.5680 N.am  238  SER238     -0.1952
     31  CA        -4.4750  100.1410   65.9490 C.3   238  SER238      0.1924
     32  C         -4.0440  101.5910   66.1550 C.2   238  SER238      0.2314
     33  O         -4.5740  102.2870   67.0190 O.2   238  SER238     -0.2863
     34  CB        -3.7220   99.2440   66.9400 C.3   238  SER238      0.2116
     35  OG        -2.3140   99.3150   66.7640 O.3   238  SER238     -0.2180
     36  N         -2.0340  100.4740   75.6450 N.3   255  VAL255     -0.1231
     37  CA        -1.3810   99.3230   76.2570 C.3   255  VAL255      0.1692
     38  C         -0.8670   98.3850   75.1660 C.2   255  VAL255      0.2593
     39  O         -1.5030   98.2160   74.1230 O.2   255  VAL255     -0.2718
     40  CB        -2.3420   98.5620   77.2210 C.3   255  VAL255      0.0266
     41  CG1       -3.5070   97.9440   76.4470 C.3   255  VAL255      0.0020
     42  CG2       -1.5650   97.4870   77.9860 C.3   255  VAL255      0.0020
     43  N          0.3050   97.8040   75.4050 N.am  256  SER256     -0.1938
     44  CA         0.9210   96.8870   74.4570 C.3   256  SER256      0.2055
     45  C          1.3780   95.6280   75.1800 C.2   256  SER256      0.2642
     46  O          1.8960   95.6930   76.2980 O.2   256  SER256     -0.2714
     47  CB         2.1160   97.5500   73.7700 C.3   256  SER256      0.2130
     48  OG         1.7140   98.7000   73.0480 O.3   256  SER256     -0.2179
     49  N          1.1770   94.4870   74.5300 N.am  257  MET257     -0.1976
     50  CA         1.5510   93.1960   75.0830 C.3   257  MET257      0.1605
     51  C          2.7460   92.6300   74.3340 C.2   257  MET257      0.2287
     52  O          2.8860   92.8360   73.1300 O.2   257  MET257     -0.2864
     53  CB         0.3640   92.2290   74.9910 C.3   257  MET257      0.0413
     54  CG         0.6990   90.7650   75.2690 C.3   257  MET257      0.0598
     55  SD         1.3210   89.8720   73.8040 S.3   257  MET257     -0.1393
     56  CE         1.0820   88.1720   74.3440 C.3   257  MET257      0.0692
     57  N          6.3460   94.4860   70.2190 N.3   264  GLU264     -0.1245
     58  CA         6.2910   95.6090   69.3120 C.3   264  GLU264      0.1567
     59  C          6.2820   96.8950   70.1250 C.2   264  GLU264      0.2260
     60  O          5.7200   97.9090   69.6990 O.2   264  GLU264     -0.2867
     61  CB         5.0360   95.5140   68.4370 C.3   264  GLU264      0.0388
     62  CG         5.0360   94.3360   67.4640 C.3   264  GLU264      0.1160
     63  CD         3.8180   94.3210   66.5480 C.2   264  GLU264      0.3649
     64  OE1        3.5520   95.3540   65.8960 O.co2 264  GLU264     -0.2457
     65  OE2        3.1310   93.2750   66.4730 O.co2 264  GLU264     -0.2457
     66  N         -4.3650   83.7120   67.0200 N.3   310  TYR310     -0.1241
     67  CA        -4.4190   85.1720   66.9560 C.3   310  TYR310      0.1605
     68  C         -4.9870   85.7270   68.2660 C.2   310  TYR310      0.2264
     69  O         -4.6180   86.8160   68.6990 O.2   310  TYR310     -0.2867
     70  CB        -5.3210   85.6220   65.8030 C.3   310  TYR310      0.0534
     71  CG        -4.8410   85.2060   64.4280 C.ar  310  TYR310     -0.0201
     72  CD1       -5.7380   85.0900   63.3580 C.ar  310  TYR310     -0.0009
     73  CD2       -3.4900   84.9500   64.1850 C.ar  310  TYR310     -0.0009
     74  CE1       -5.2970   84.7310   62.0800 C.ar  310  TYR310      0.0417
     75  CE2       -3.0420   84.5930   62.9130 C.ar  310  TYR310      0.0417
     76  CZ        -3.9450   84.4870   61.8710 C.ar  310  TYR310      0.1957
     77  OH        -3.4810   84.1440   60.6230 O.3   310  TYR310     -0.2866
     78  N         -4.1260   88.3490   72.7790 N.3   314  LEU314     -0.1245
     79  CA        -5.1600   89.3010   73.1690 C.3   314  LEU314      0.1561
     80  C         -5.8100   88.8830   74.4730 C.2   314  LEU314      0.2260
     81  O         -6.0470   89.7030   75.3580 O.2   314  LEU314     -0.2867
     82  CB        -6.2200   89.3990   72.0750 C.3   314  LEU314      0.0270
     83  CG        -5.7250   90.0610   70.7910 C.3   314  LEU314      0.0019
     84  CD1       -6.8080   90.0070   69.7210 C.3   314  LEU314      0.0001
     85  CD2       -5.3280   91.4930   71.0900 C.3   314  LEU314      0.0001
     86  N         -3.4820   89.4480   77.3360 N.3   317  LEU317     -0.1245
     87  CA        -3.4540   90.8720   77.6290 C.3   317  LEU317      0.1561
     88  C         -4.6660   91.3190   78.4470 C.2   317  LEU317      0.2260
     89  O         -4.5050   91.9910   79.4670 O.2   317  LEU317     -0.2867
     90  CB        -3.3890   91.6880   76.3330 C.3   317  LEU317      0.0270
     91  CG        -3.4310   93.2160   76.4950 C.3   317  LEU317      0.0019
     92  CD1       -2.1410   93.7080   77.1370 C.3   317  LEU317      0.0001
     93  CD2       -3.5920   93.8730   75.1240 C.3   317  LEU317      0.0001
     94  N        -10.0510   98.5320   69.6070 N.3   330  THR330     -0.1203
     95  CA        -8.9470   97.8160   68.9800 C.3   330  THR330      0.1994
     96  C         -8.9160   98.1150   67.4860 C.2   330  THR330      0.2618
     97  O         -9.8540   98.7020   66.9430 O.2   330  THR330     -0.2717
     98  CB        -9.0730   96.2840   69.1820 C.3   330  THR330      0.1784
     99  OG1       -9.9140   95.7350   68.1650 O.3   330  THR330     -0.2211
    100  CG2       -9.6940   95.9750   70.5500 C.3   330  THR330      0.0376
    101  N         -7.8210   97.7360   66.8310 N.am  331  GLY331     -0.1942
    102  CA        -7.7070   97.9310   65.3950 C.3   331  GLY331      0.2014
    103  C         -7.8540   96.5840   64.6960 C.2   331  GLY331      0.2639
    104  O         -7.4100   96.4060   63.5650 O.2   331  GLY331     -0.2714
    105  N         -8.4830   95.6330   65.3840 N.am  332  TYR332     -0.1959
    106  CA        -8.6970   94.2820   64.8610 C.3   332  TYR332      0.1771
    107  C         -9.6280   94.2430   63.6540 C.2   332  TYR332      0.2620
    108  O        -10.6300   94.9590   63.6170 O.2   332  TYR332     -0.2715
    109  CB        -9.2990   93.3780   65.9490 C.3   332  TYR332      0.0574
    110  CG        -9.2110   91.8980   65.6180 C.ar  332  TYR332     -0.0198
    111  CD1       -8.1310   91.1260   66.0650 C.ar  332  TYR332     -0.0009
    112  CD2      -10.1590   91.2870   64.7880 C.ar  332  TYR332     -0.0009
    113  CE1       -7.9910   89.7770   65.6840 C.ar  332  TYR332      0.0417
    114  CE2      -10.0260   89.9450   64.4000 C.ar  332  TYR332      0.0417
    115  CZ        -8.9370   89.2010   64.8510 C.ar  332  TYR332      0.1957
    116  OH        -8.7770   87.8940   64.4430 O.3   332  TYR332     -0.2866
    117  N         -9.2950   93.4080   62.6700 N.am  333  GLY333     -0.1954
    118  CA       -10.1520   93.2540   61.5020 C.3   333  GLY333      0.1869
    119  C         -9.9060   94.1100   60.2750 C.2   333  GLY333      0.2309
    120  O        -10.4880   93.8600   59.2160 O.2   333  GLY333     -0.2863
    121  N         -7.3140   94.2720   58.3690 N.3   335  ASP335     -0.1239
    122  CA        -6.6810   93.5350   57.2860 C.3   335  ASP335      0.1674
    123  C         -7.6290   92.7100   56.4330 C.2   335  ASP335      0.2266
    124  O         -7.3590   92.4770   55.2570 O.2   335  ASP335     -0.2867
    125  CB        -5.5830   92.6220   57.8300 C.3   335  ASP335      0.1410
    126  CG        -4.4940   93.3940   58.5380 C.2   335  ASP335      0.3668
    127  OD1       -4.5650   93.5280   59.7860 O.co2 335  ASP335     -0.2456
    128  OD2       -3.5770   93.8810   57.8420 O.co2 335  ASP335     -0.2456
    129  N          2.9810   95.5100   57.4870 N.3   427  LYS427     -0.1231
    130  CA         2.0190   94.7610   58.3290 C.3   427  LYS427      0.1693
    131  C          2.6660   93.5810   59.0740 C.2   427  LYS427      0.2592
    132  O          3.5330   92.8960   58.5510 O.2   427  LYS427     -0.2718
    133  CB         0.9170   94.1300   57.4350 C.3   427  LYS427      0.0285
    134  CG        -0.2480   93.5330   58.1620 C.3   427  LYS427      0.0035
    135  CD        -0.0510   92.1730   58.7540 C.3   427  LYS427      0.0206
    136  CE        -1.2840   91.5990   59.4100 C.3   427  LYS427      0.1093
    137  NZ        -1.8000   92.3960   60.5480 N.3   427  LYS427     -0.1314
    138  N          2.2160   93.3980   60.3180 N.am  428  LEU428     -0.1966
    139  CA         2.6500   92.3320   61.2200 C.3   428  LEU428      0.1727
    140  C          1.5420   91.7220   62.0320 C.2   428  LEU428      0.2613
    141  O          0.9030   92.4640   62.8220 O.2   428  LEU428     -0.2715
    142  CB         3.8320   92.8240   62.0760 C.3   428  LEU428      0.0311
    143  CG         4.4590   91.9410   63.0960 C.3   428  LEU428      0.0022
    144  CD1        4.9210   90.5960   62.6930 C.3   428  LEU428      0.0001
    145  CD2        4.9520   92.5370   64.3550 C.3   428  LEU428      0.0001
    146  N          1.3000   90.4440   61.9520 N.am  429  GLY429     -0.1997
    147  CA         0.2630   89.7000   62.6300 C.3   429  GLY429      0.1663
    148  C          0.6090   89.2570   64.0510 C.3   429  GLY429      0.2478
    149  O          1.8420   89.3940   64.5280 O.3   429  GLY429     -0.2017
    150  N         -0.2770   89.6830   64.9590 N.3   430  VAL430     -0.1798
    151  CA         0.0970   89.7370   66.3640 C.3   430  VAL430      0.1529
    152  C          0.8060   88.4430   66.8350 C.2   430  VAL430      0.2576
    153  O          1.8360   88.6500   67.5350 O.2   430  VAL430     -0.2718
    154  CB        -1.0600   90.1330   67.2450 C.3   430  VAL430      0.0250
    155  CG1       -0.8300   90.0760   68.7290 C.3   430  VAL430      0.0019
    156  CG2       -1.5910   91.5510   66.9140 C.3   430  VAL430      0.0019
    157  N          0.5730   87.3140   66.2710 N.am  431  HIS431     -0.1976
    158  CA         1.1620   86.0750   66.0810 C.3   431  HIS431      0.1656
    159  C          2.5800   85.9420   65.6360 C.2   431  HIS431      0.2291
    160  O          3.3210   85.0120   66.0180 O.2   431  HIS431     -0.2864
    161  CB         0.2310   85.0570   65.4530 C.3   431  HIS431      0.0771
    162  CG        -0.1170   85.3180   64.0230 C.ar  431  HIS431      0.0820
    163  ND1       -1.1890   86.0120   63.5550 N.ar  431  HIS431     -0.2267
    164  CD2        0.5720   84.8880   62.9160 C.ar  431  HIS431      0.1154
    165  CE1       -1.1730   85.9990   62.2270 C.ar  431  HIS431      0.1986
    166  NE2       -0.1130   85.3260   61.8180 N.ar  431  HIS431     -0.2212
    167  N          4.5190   89.1920   65.9550 N.3   433  GLY433     -0.1210
    168  CA         5.1430   90.1880   66.8100 C.3   433  GLY433      0.1956
    169  C          5.3610   89.7370   68.2410 C.2   433  GLY433      0.2612
    170  O          6.0020   90.4390   69.0240 O.2   433  GLY433     -0.2717
    171  N          4.8200   88.5690   68.5830 N.am  434  SER434     -0.1952
    172  CA         4.9630   87.9960   69.9220 C.3   434  SER434      0.1924
    173  C          5.3450   86.5060   69.8390 C.2   434  SER434      0.2314
    174  O          5.5010   85.8330   70.8600 O.2   434  SER434     -0.2863
    175  CB         3.6590   88.1640   70.7190 C.3   434  SER434      0.2116
    176  OG         2.5580   87.5310   70.0840 O.3   434  SER434     -0.2180
@<TRIPOS>BOND
     1   124   123    2
     2   123   122    1
     3   122   125    1
     4   122   121    1
     5   133   134    1
     6   133   130    1
     7   129   130    1
     8   125   126    1
     9   128   126   ar
    10   134   135    1
    11   130   131    1
    12   126   127   ar
    13   132   131    2
    14   135   136    1
    15   131   138   am
    16   120   119    2
    17   136   137    1
    18    28    27   ar
    19   119   118    1
    20   138   139    1
    21    29    27   ar
    22    77    76    1
    23    27    26    1
    24   139   140    1
    25   139   142    1
    26   118   117    1
    27    22    23    1
    28   166   165   ar
    29   166   164   ar
    30    76    74   ar
    31    76    75   ar
    32   146   140   am
    33   146   147    1
    34   140   141    2
    35    26    23    1
    36   142   143    1
    37    74    72   ar
    38    23    24    1
    39   165   163   ar
    40   147   148    1
    41   117   107   am
    42   144   143    1
    43    75    73   ar
    44   164   162   ar
    45   143   145    1
    46    72    71   ar
    47    24    25    2
    48    24    30   am
    49   163   162   ar
    50   104   103    2
    51   108   107    2
    52   107   106    1
    53   162   161    1
    54   148   149    1
    55   148   150    1
    56    73    71   ar
    57   114   112   ar
    58   114   115   ar
    59    71    70    1
    60   116   115    1
    61    30    31    1
    62   103   105   am
    63   103   102    1
    64   112   110   ar
    65   115   113   ar
    66   106   105    1
    67   106   109    1
    68   150   151    1
    69   102   101    1
    70   161   158    1
    71   110   109    1
    72   110   111   ar
    73   159   160    2
    74   159   158    1
    75   113   111   ar
    76    70    67    1
    77    64    63   ar
    78    31    32    1
    79    31    34    1
    80   167   168    1
    81   158   157    1
    82    32    33    2
    83   157   152   am
    84   151   152    1
    85   151   154    1
    86    21    20    1
    87    65    63   ar
    88    63    62    1
    89    35    34    1
    90   168   169    1
    91   101    96   am
    92   152   153    2
    93   156   154    1
    94    97    96    2
    95    67    66    1
    96    67    68    1
    97   154   155    1
    98    62    61    1
    99    96    95    1
   100    19    18    2
   101    20    17    1
   102    18    17    1
   103    99    98    1
   104   169   171   am
   105   169   170    2
   106    68    69    2
   107    61    58    1
   108    17    16    1
   109   171   172    1
   110    14    13    1
   111    16    10   am
   112    95    98    1
   113    95    94    1
   114    98   100    1
   115    58    59    1
   116    58    57    1
   117    60    59    2
   118    84    83    1
   119   173   172    1
   120   173   174    2
   121   172   175    1
   122    13    15    1
   123    13    12    1
   124   176   175    1
   125     4     3    2
   126    10     9    1
   127    10    11    2
   128     9    12    1
   129     9     8    1
   130    83    85    1
   131    83    82    1
   132     3     8   am
   133     3     2    1
   134     7     5    1
   135    82    79    1
   136     5     2    1
   137     5     6    1
   138     2     1    1
   139    78    79    1
   140    48    47    1
   141    52    51    2
   142    79    80    1
   143    47    44    1
   144    55    56    1
   145    55    54    1
   146    39    38    2
   147    51    50    1
   148    44    45    1
   149    44    43    1
   150    80    81    2
   151    49    50    1
   152    49    45   am
   153    53    50    1
   154    53    54    1
   155    93    91    1
   156    38    43   am
   157    38    37    1
   158    45    46    2
   159    36    37    1
   160    37    40    1
   161    90    91    1
   162    90    87    1
   163    41    40    1
   164    91    92    1
   165    40    42    1
   166    86    87    1
   167    87    88    1
   168    88    89    2
