@<TRIPOS>MOLECULE
tmp/1mc1A00.pdb
 127 120 0 0 0
SMALL
GASTEIGER

@<TRIPOS>ATOM
      1  N         -0.4030   98.4150   68.9710 N.3   233  SER233     -0.1217
      2  CA         0.6660   97.5230   68.5550 C.3   233  SER233      0.1889
      3  C          1.7180   98.2710   67.7600 C.2   233  SER233      0.2288
      4  O          2.7970   97.7450   67.5030 O.2   233  SER233     -0.2866
      5  CB         0.1260   96.3930   67.6890 C.3   233  SER233      0.2089
      6  OG        -0.2060   96.8800   66.4010 O.3   233  SER233     -0.2183
      7  N          1.2100   99.1340   64.7540 N.3   235  GLY235     -0.1210
      8  CA         0.8420   98.9360   63.3620 C.3   235  GLY235      0.1956
      9  C         -0.1240  100.0460   62.9680 C.2   235  GLY235      0.2612
     10  O         -0.6750  100.7290   63.8390 O.2   235  GLY235     -0.2717
     11  N         -0.3480  100.2280   61.6700 N.am  236  ILE236     -0.1965
     12  CA        -1.2340  101.2860   61.1900 C.3   236  ILE236      0.1727
     13  C         -2.6850  101.1720   61.6650 C.2   236  ILE236      0.2616
     14  O         -3.3180  102.1770   61.9880 O.2   236  ILE236     -0.2715
     15  CB        -1.2200  101.3670   59.6290 C.3   236  ILE236      0.0290
     16  CG1       -2.1320  102.5010   59.1640 C.3   236  ILE236      0.0022
     17  CG2       -1.6200  100.0210   59.0150 C.3   236  ILE236      0.0023
     18  CD1       -1.6320  103.8910   59.5810 C.3   236  ILE236      0.0001
     19  N         -3.2080   99.9510   61.7120 N.am  237  ASP237     -0.1957
     20  CA        -4.5870   99.7350   62.1330 C.3   237  ASP237      0.1840
     21  C         -4.8880  100.2770   63.5430 C.2   237  ASP237      0.2622
     22  O         -5.6850  101.2080   63.6900 O.2   237  ASP237     -0.2715
     23  CB        -4.9370   98.2360   62.0490 C.3   237  ASP237      0.1450
     24  CG        -4.6890   97.6550   60.6670 C.2   237  ASP237      0.3671
     25  OD1       -4.6150   98.4350   59.6890 O.co2 237  ASP237     -0.2456
     26  OD2       -4.5780   96.4120   60.5480 O.co2 237  ASP237     -0.2456
     27  N         -4.2530   99.7030   64.5680 N.am  238  SER238     -0.1950
     28  CA        -4.4750  100.1410   65.9490 C.3   238  SER238      0.1924
     29  C         -4.0440  101.5910   66.1550 C.2   238  SER238      0.2314
     30  O         -4.5740  102.2870   67.0190 O.2   238  SER238     -0.2863
     31  CB        -3.7220   99.2440   66.9400 C.3   238  SER238      0.2116
     32  OG        -2.3140   99.3150   66.7640 O.3   238  SER238     -0.2180
     33  N          6.3460   94.4860   70.2190 N.3   264  GLU264     -0.1245
     34  CA         6.2910   95.6090   69.3120 C.3   264  GLU264      0.1567
     35  C          6.2820   96.8950   70.1250 C.2   264  GLU264      0.2260
     36  O          5.7200   97.9090   69.6990 O.2   264  GLU264     -0.2867
     37  CB         5.0360   95.5140   68.4370 C.3   264  GLU264      0.0388
     38  CG         5.0360   94.3360   67.4640 C.3   264  GLU264      0.1160
     39  CD         3.8180   94.3210   66.5480 C.2   264  GLU264      0.3649
     40  OE1        3.5520   95.3540   65.8960 O.co2 264  GLU264     -0.2457
     41  OE2        3.1310   93.2750   66.4730 O.co2 264  GLU264     -0.2457
     42  N         -7.8210   97.7360   66.8310 N.3   331  GLY331     -0.1210
     43  CA        -7.7070   97.9310   65.3950 C.3   331  GLY331      0.1956
     44  C         -7.8540   96.5840   64.6960 C.2   331  GLY331      0.2611
     45  O         -7.4100   96.4060   63.5650 O.2   331  GLY331     -0.2717
     46  N         -8.4830   95.6330   65.3840 N.am  332  TYR332     -0.1976
     47  CA        -8.6970   94.2820   64.8610 C.3   332  TYR332      0.1639
     48  C         -9.6280   94.2430   63.6540 C.2   332  TYR332      0.2290
     49  O        -10.6300   94.9590   63.6170 O.2   332  TYR332     -0.2864
     50  CB        -9.2990   93.3780   65.9490 C.3   332  TYR332      0.0560
     51  CG        -9.2110   91.8980   65.6180 C.ar  332  TYR332     -0.0198
     52  CD1       -8.1310   91.1260   66.0650 C.ar  332  TYR332     -0.0009
     53  CD2      -10.1590   91.2870   64.7880 C.ar  332  TYR332     -0.0009
     54  CE1       -7.9910   89.7770   65.6840 C.ar  332  TYR332      0.0417
     55  CE2      -10.0260   89.9450   64.4000 C.ar  332  TYR332      0.0417
     56  CZ        -8.9370   89.2010   64.8510 C.ar  332  TYR332      0.1957
     57  OH        -8.7770   87.8940   64.4430 O.3   332  TYR332     -0.2866
     58  N         -7.3140   94.2720   58.3690 N.3   335  ASP335     -0.1239
     59  CA        -6.6810   93.5350   57.2860 C.3   335  ASP335      0.1674
     60  C         -7.6290   92.7100   56.4330 C.2   335  ASP335      0.2266
     61  O         -7.3590   92.4770   55.2570 O.2   335  ASP335     -0.2867
     62  CB        -5.5830   92.6220   57.8300 C.3   335  ASP335      0.1410
     63  CG        -4.4940   93.3940   58.5380 C.2   335  ASP335      0.3668
     64  OD1       -4.5650   93.5280   59.7860 O.co2 335  ASP335     -0.2456
     65  OD2       -3.5770   93.8810   57.8420 O.co2 335  ASP335     -0.2456
     66  N         -2.7240   98.1580   52.0490 N.3   407  LYS407     -0.1245
     67  CA        -3.7110   98.9310   52.8010 C.3   407  LYS407      0.1561
     68  C         -3.4730  100.4320   52.6060 C.2   407  LYS407      0.2260
     69  O         -3.7040  101.2380   53.5090 O.2   407  LYS407     -0.2867
     70  CB        -3.6180   98.5600   54.2900 C.3   407  LYS407      0.0271
     71  CG        -3.8460   97.0580   54.5430 C.3   407  LYS407      0.0035
     72  CD        -4.0150   96.7180   56.0220 C.3   407  LYS407      0.0206
     73  CE        -2.7060   96.8470   56.7870 C.3   407  LYS407      0.1093
     74  NZ        -2.8700   96.4700   58.2120 N.3   407  LYS407     -0.1314
     75  N         -3.4990  103.9600   55.2270 N.3   411  ARG411     -0.1245
     76  CA        -2.2530  104.6100   55.6040 C.3   411  ARG411      0.1563
     77  C         -2.3340  106.0820   55.2470 C.2   411  ARG411      0.2260
     78  O         -2.0060  106.9510   56.0560 O.2   411  ARG411     -0.2867
     79  CB        -1.0670  103.9710   54.8760 C.3   411  ARG411      0.0307
     80  CG        -0.7920  102.5120   55.2680 C.3   411  ARG411      0.0489
     81  CD         0.4120  101.9370   54.5210 C.3   411  ARG411      0.2205
     82  NE         0.5910  100.5070   54.8090 N.pl3 411  ARG411     -0.0865
     83  CZ         1.0890  100.0270   55.9460 C.cat 411  ARG411      0.5346
     84  NH1        1.2040   98.7260   56.1220 N.pl3 411  ARG411      0.1354
     85  NH2        1.4910  100.8550   56.9000 N.pl3 411  ARG411      0.1354
     86  N          4.7870  101.6930   58.0290 N.3   425  ARG425     -0.1231
     87  CA         5.0680  100.4710   58.7670 C.3   425  ARG425      0.1679
     88  C          4.4580   99.2460   58.0860 C.2   425  ARG425      0.2434
     89  O          3.2460   99.1710   57.8980 O.2   425  ARG425     -0.2733
     90  CB         4.4970  100.5940   60.1890 C.3   425  ARG425      0.0321
     91  CG         4.7210   99.3840   61.0990 C.3   425  ARG425      0.0489
     92  CD         6.0930   99.4350   61.7380 C.3   425  ARG425      0.2205
     93  NE         6.2410  100.6310   62.5730 N.pl3 425  ARG425     -0.0865
     94  CZ         7.4100  101.1470   62.9360 C.cat 425  ARG425      0.5346
     95  NH1        7.4480  102.2330   63.6950 N.pl3 425  ARG425      0.1354
     96  NH2        8.5410  100.5820   62.5260 N.pl3 425  ARG425      0.1354
     97  N          5.2990   98.2800   57.6910 N.am  426  PRO426     -0.2718
     98  CA         4.8130   97.0580   57.0420 C.3   426  PRO426      0.1535
     99  C          3.8880   96.3320   58.0120 C.2   426  PRO426      0.2598
    100  O          3.9940   96.5070   59.2280 O.2   426  PRO426     -0.2715
    101  CB         6.0970   96.2850   56.7730 C.3   426  PRO426      0.0310
    102  CG         7.0740   97.3880   56.4830 C.3   426  PRO426      0.0237
    103  CD         6.7650   98.3730   57.5940 C.3   426  PRO426      0.0939
    104  N          2.9810   95.5100   57.4870 N.am  427  LYS427     -0.1964
    105  CA         2.0190   94.7610   58.3290 C.3   427  LYS427      0.1728
    106  C          2.6660   93.5810   59.0740 C.2   427  LYS427      0.2616
    107  O          3.5330   92.8960   58.5510 O.2   427  LYS427     -0.2715
    108  CB         0.9170   94.1300   57.4350 C.3   427  LYS427      0.0311
    109  CG        -0.2480   93.5330   58.1620 C.3   427  LYS427      0.0038
    110  CD        -0.0510   92.1730   58.7540 C.3   427  LYS427      0.0206
    111  CE        -1.2840   91.5990   59.4100 C.3   427  LYS427      0.1093
    112  NZ        -1.8000   92.3960   60.5480 N.3   427  LYS427     -0.1314
    113  N          2.2160   93.3980   60.3180 N.am  428  LEU428     -0.1977
    114  CA         2.6500   92.3320   61.2200 C.3   428  LEU428      0.1596
    115  C          1.5420   91.7220   62.0320 C.2   428  LEU428      0.2287
    116  O          0.9030   92.4640   62.8220 O.2   428  LEU428     -0.2864
    117  CB         3.8320   92.8240   62.0760 C.3   428  LEU428      0.0297
    118  CG         4.4590   91.9410   63.0960 C.3   428  LEU428      0.0022
    119  CD1        4.9210   90.5960   62.6930 C.3   428  LEU428      0.0001
    120  CD2        4.9520   92.5370   64.3550 C.3   428  LEU428      0.0001
    121  N         -0.2770   89.6830   64.9590 N.3   430  VAL430     -0.1301
    122  CA         0.0970   89.7370   66.3640 C.3   430  VAL430      0.1246
    123  C          0.8060   88.4430   66.8350 C.3   430  VAL430      0.2009
    124  O          1.8360   88.6500   67.5350 O.3   430  VAL430     -0.2188
    125  CB        -1.0600   90.1330   67.2450 C.3   430  VAL430      0.0202
    126  CG1       -0.8300   90.0760   68.7290 C.3   430  VAL430      0.0016
    127  CG2       -1.5910   91.5510   66.9140 C.3   430  VAL430      0.0016
@<TRIPOS>BOND
     1    66    67    1
     2    68    67    1
     3    68    69    2
     4    67    70    1
     5    70    71    1
     6    81    82    1
     7    81    80    1
     8    71    72    1
     9    82    83    2
    10    79    80    1
    11    79    76    1
    12    75    76    1
    13    77    76    1
    14    77    78    2
    15    61    60    2
    16    83    84    1
    17    83    85    1
    18    72    73    1
    19    60    59    1
    20   102   101    1
    21   102   103    1
    22   101    98    1
    23    73    74    1
    24    98    97    1
    25    98    99    1
    26    59    62    1
    27    59    58    1
    28   108   109    1
    29   108   105    1
    30   104    99   am
    31   104   105    1
    32   103    97    1
    33    97    88   am
    34    62    63    1
    35    65    63   ar
    36    89    88    2
    37    99   100    2
    38    86    87    1
    39    88    87    1
    40   109   110    1
    41   105   106    1
    42    63    64   ar
    43   107   106    2
    44   110   111    1
    45    87    90    1
    46    17    15    1
    47   106   113   am
    48    16    18    1
    49    16    15    1
    50   111   112    1
    51    15    12    1
    52    25    24   ar
    53    90    91    1
    54   113   114    1
    55    26    24   ar
    56    24    23    1
    57    91    92    1
    58    12    13    1
    59    12    11    1
    60   114   115    1
    61   114   117    1
    62    13    19   am
    63    13    14    2
    64    11     9   am
    65    19    20    1
    66    92    93    1
    67   115   116    2
    68    23    20    1
    69   117   118    1
    70    20    21    1
    71    96    94    1
    72    93    94    2
    73   119   118    1
    74    94    95    1
    75     9     8    1
    76     9    10    2
    77   118   120    1
    78     8     7    1
    79    21    22    2
    80    21    27   am
    81    45    44    2
    82    49    48    2
    83    48    47    1
    84    55    53   ar
    85    55    56   ar
    86    57    56    1
    87    27    28    1
    88    44    46   am
    89    44    43    1
    90    53    51   ar
    91    56    54   ar
    92    47    46    1
    93    47    50    1
    94   121   122    1
    95    43    42    1
    96    51    50    1
    97    51    52   ar
    98    54    52   ar
    99    40    39   ar
   100    28    29    1
   101    28    31    1
   102    29    30    2
   103   122   123    1
   104   122   125    1
   105     6     5    1
   106    41    39   ar
   107    39    38    1
   108    32    31    1
   109   123   124    1
   110   127   125    1
   111   125   126    1
   112    38    37    1
   113     4     3    2
   114     5     2    1
   115     3     2    1
   116    37    34    1
   117     2     1    1
   118    34    35    1
   119    34    33    1
   120    36    35    2
