@<TRIPOS>MOLECULE
tmp/1mc3B00.pdb
 139 129 0 0 0
SMALL
GASTEIGER

@<TRIPOS>ATOM
      1  N         94.2580   17.5410   31.4380 N.3     6  LEU6       -0.1245
      2  CA        94.8930   16.3990   32.0770 C.3     6  LEU6        0.1561
      3  C         94.5590   15.1850   31.2010 C.2     6  LEU6        0.2260
      4  O         93.3960   14.7610   31.1180 O.2     6  LEU6       -0.2867
      5  CB        94.3240   16.1830   33.4750 C.3     6  LEU6        0.0270
      6  CG        95.1680   16.5820   34.6860 C.3     6  LEU6        0.0019
      7  CD1       96.6330   16.7980   34.2810 C.3     6  LEU6        0.0001
      8  CD2       94.5840   17.8140   35.3020 C.3     6  LEU6        0.0001
      9  N         96.6610   12.2510   31.2920 N.3     8  GLY8       -0.1210
     10  CA        97.5380   11.1960   31.7310 C.3     8  GLY8        0.1956
     11  C         96.7420   10.1450   32.4720 C.2     8  GLY8        0.2612
     12  O         95.7340    9.6530   31.9680 O.2     8  GLY8       -0.2717
     13  N         97.2150    9.7910   33.6670 N.am    9  GLY9       -0.1942
     14  CA        96.5550    8.8070   34.4890 C.3     9  GLY9        0.2014
     15  C         96.8430    7.3890   34.0600 C.2     9  GLY9        0.2640
     16  O         97.3120    7.1470   32.9500 O.2     9  GLY9       -0.2714
     17  N         96.5290    6.4460   34.9430 N.am   10  SER10      -0.1935
     18  CA        96.7640    5.0310   34.6960 C.3    10  SER10       0.2055
     19  C         95.5670    4.3450   34.1160 C.2    10  SER10       0.2644
     20  O         95.6840    3.2090   33.6720 O.2    10  SER10      -0.2714
     21  CB        97.1180    4.3120   35.9930 C.3    10  SER10       0.2130
     22  OG        98.2710    4.8700   36.5850 O.3    10  SER10      -0.2179
     23  N         94.4230    5.0270   34.1600 N.am   11  GLY11      -0.1939
     24  CA        93.1790    4.4750   33.6590 C.3    11  GLY11       0.2014
     25  C         92.9670    3.0110   34.0230 C.2    11  GLY11       0.2640
     26  O         92.6180    2.2040   33.1630 O.2    11  GLY11      -0.2714
     27  N         93.1410    2.6520   35.2940 N.am   12  THR12      -0.1936
     28  CA        93.0030    1.2500   35.7020 C.3    12  THR12       0.2028
     29  C         91.6310    0.5990   35.5160 C.2    12  THR12       0.2642
     30  O         91.5580   -0.6050   35.2890 O.2    12  THR12      -0.2714
     31  CB        93.4290    1.0330   37.1740 C.3    12  THR12       0.1808
     32  OG1       92.4840    1.6530   38.0550 O.3    12  THR12      -0.2208
     33  CG2       94.8030    1.5950   37.4020 C.3    12  THR12       0.0379
     34  N         90.5530    1.3800   35.6170 N.am   13  ARG13      -0.1977
     35  CA        89.2090    0.8440   35.4680 C.3    13  ARG13       0.1597
     36  C         88.8390    0.3190   34.0990 C.2    13  ARG13       0.2287
     37  O         87.8200   -0.3300   33.9560 O.2    13  ARG13      -0.2864
     38  CB        88.1960    1.8650   35.9300 C.3    13  ARG13       0.0334
     39  CG        88.0330    1.8620   37.4300 C.3    13  ARG13       0.0492
     40  CD        87.1250    2.9790   37.9100 C.3    13  ARG13       0.2205
     41  NE        87.7460    4.2820   37.7350 N.pl3  13  ARG13      -0.0865
     42  CZ        87.1930    5.4320   38.0900 C.cat  13  ARG13       0.5346
     43  NH1       85.9930    5.4350   38.6460 N.pl3  13  ARG13       0.1354
     44  NH2       87.8240    6.5760   37.8650 N.pl3  13  ARG13       0.1354
     45  N         93.9860    6.0020   27.9350 N.3    23  LYS23      -0.1231
     46  CA        92.5320    6.1150   27.8900 C.3    23  LYS23       0.1693
     47  C         92.0580    7.2290   26.9930 C.2    23  LYS23       0.2591
     48  O         91.0640    7.0860   26.3040 O.2    23  LYS23      -0.2718
     49  CB        91.9920    6.3650   29.2900 C.3    23  LYS23       0.0285
     50  CG        90.5350    6.7370   29.3440 C.3    23  LYS23       0.0035
     51  CD        89.9630    6.6810   30.7580 C.3    23  LYS23       0.0206
     52  CE        90.6150    7.6610   31.7250 C.3    23  LYS23       0.1093
     53  NZ        89.8780    7.7820   33.0350 N.3    23  LYS23      -0.1314
     54  N         92.7730    8.3480   27.0130 N.am   24  GLN24      -0.1979
     55  CA        92.4150    9.5160   26.2230 C.3    24  GLN24       0.1601
     56  C         92.6570    9.3710   24.7310 C.2    24  GLN24       0.2287
     57  O         92.3670   10.2870   23.9630 O.2    24  GLN24      -0.2864
     58  CB        93.1410   10.7570   26.7430 C.3    24  GLN24       0.0394
     59  CG        92.5020   11.3970   27.9430 C.3    24  GLN24       0.0908
     60  CD        92.6060   10.5420   29.1960 C.2    24  GLN24       0.2608
     61  OE1       93.6730   10.0060   29.5220 O.2    24  GLN24      -0.2717
     62  NE2       91.5050   10.4240   29.9140 N.am   24  GLN24      -0.0878
     63  N         98.7990   17.7170   29.3110 N.3    50  ILE50      -0.1245
     64  CA        99.6720   16.9650   30.1880 C.3    50  ILE50       0.1561
     65  C         99.3750   15.4760   30.0200 C.2    50  ILE50       0.2260
     66  O         98.2540   15.0200   30.2100 O.2    50  ILE50      -0.2867
     67  CB        99.4730   17.3340   31.6320 C.3    50  ILE50       0.0252
     68  CG1       99.6630   18.8310   31.8250 C.3    50  ILE50       0.0019
     69  CG2      100.4760   16.5560   32.4720 C.3    50  ILE50       0.0019
     70  CD1       99.2380   19.3310   33.1640 C.3    50  ILE50       0.0001
     71  N        103.8230   14.2520   32.9030 N.3    78  GLN78      -0.1245
     72  CA       103.5820   14.0080   34.3280 C.3    78  GLN78       0.1566
     73  C        104.1760   12.5970   34.5760 C.2    78  GLN78       0.2260
     74  O        103.5100   11.5790   34.3290 O.2    78  GLN78      -0.2867
     75  CB       102.0840   14.0330   34.6450 C.3    78  GLN78       0.0367
     76  CG       101.7790   13.6760   36.0940 C.3    78  GLN78       0.0905
     77  CD       100.2880   13.6200   36.4100 C.2    78  GLN78       0.2608
     78  OE1       99.5010   13.0840   35.6450 O.2    78  GLN78      -0.2717
     79  NE2       99.9070   14.1600   37.5550 N.am   78  GLN78      -0.0878
     80  N        101.4380    9.3790   37.9460 N.3    81  PRO81      -0.2116
     81  CA       100.0740    9.8680   38.2320 C.3    81  PRO81       0.1372
     82  C         99.8020   10.2410   39.6790 C.2    81  PRO81       0.2244
     83  O         99.0630    9.5570   40.3680 O.2    81  PRO81      -0.2868
     84  CB        99.2050    8.7120   37.7680 C.3    81  PRO81       0.0268
     85  CG       100.0480    7.5110   38.1010 C.3    81  PRO81       0.0207
     86  CD       101.4340    7.9270   37.6730 C.3    81  PRO81       0.0892
     87  N         98.0000   12.7040   41.0210 N.3    83  GLY83      -0.1210
     88  CA        96.8300   13.4870   41.3790 C.3    83  GLY83       0.1956
     89  C         96.5670   14.6190   40.4190 C.2    83  GLY83       0.2611
     90  O         97.4450   14.9550   39.6440 O.2    83  GLY83      -0.2717
     91  N         95.3810   15.2260   40.4830 N.am   84  LEU84      -0.1979
     92  CA        94.9970   16.3050   39.5650 C.3    84  LEU84       0.1596
     93  C         95.5340   17.6910   39.8800 C.2    84  LEU84       0.2287
     94  O         95.8790   18.4400   38.9880 O.2    84  LEU84      -0.2864
     95  CB        93.4800   16.4090   39.4610 C.3    84  LEU84       0.0297
     96  CG        92.5910   15.1800   39.3350 C.3    84  LEU84       0.0022
     97  CD1       91.2500   15.6420   38.7790 C.3    84  LEU84       0.0001
     98  CD2       93.1940   14.1560   38.4430 C.3    84  LEU84       0.0001
     99  N         89.2290   17.8090   32.5120 N.3   104  LEU104     -0.1231
    100  CA        89.6930   16.4450   32.6270 C.3   104  LEU104      0.1693
    101  C         89.5950   15.8250   31.2630 C.2   104  LEU104      0.2593
    102  O         88.7010   16.1440   30.4780 O.2   104  LEU104     -0.2718
    103  CB        88.8450   15.6570   33.6240 C.3   104  LEU104      0.0284
    104  CG        88.9530   16.1510   35.0640 C.3   104  LEU104      0.0019
    105  CD1       88.3580   15.1470   35.9910 C.3   104  LEU104      0.0001
    106  CD2       90.4140   16.3840   35.4090 C.3   104  LEU104      0.0001
    107  N         90.5290   14.9330   30.9790 N.am  105  GLY105     -0.1942
    108  CA        90.5470   14.2860   29.6920 C.3   105  GLY105      0.2014
    109  C         89.4640   13.2780   29.3920 C.2   105  GLY105      0.2638
    110  O         89.2310   13.0270   28.2200 O.2   105  GLY105     -0.2714
    111  N         88.8120   12.6980   30.4010 N.am  106  ASP106     -0.1971
    112  CA        87.7780   11.6800   30.1570 C.3   106  ASP106      0.1709
    113  C         86.3390   12.1820   30.2880 C.2   106  ASP106      0.2293
    114  O         85.4010   11.4000   30.5130 O.2   106  ASP106     -0.2864
    115  CB        87.9830   10.4740   31.0790 C.3   106  ASP106      0.1436
    116  CG        87.8710   10.8360   32.5390 C.2   106  ASP106      0.3671
    117  OD1       87.9320   12.0410   32.8370 O.co2 106  ASP106     -0.2456
    118  OD2       87.7380    9.9320   33.3960 O.co2 106  ASP106     -0.2456
    119  N         96.4060   10.5270   46.2400 N.3   191  GLU191     -0.1245
    120  CA        96.6400   11.4040   45.1070 C.3   191  GLU191      0.1567
    121  C         96.4060   12.8070   45.6250 C.2   191  GLU191      0.2260
    122  O         95.8420   12.9500   46.7140 O.2   191  GLU191     -0.2867
    123  CB        95.6350   11.0830   43.9800 C.3   191  GLU191      0.0388
    124  CG        95.4430    9.5860   43.6830 C.3   191  GLU191      0.1160
    125  CD        94.6050    9.3210   42.4420 C.2   191  GLU191      0.3649
    126  OE1       93.6020   10.0240   42.2080 O.co2 191  GLU191     -0.2457
    127  OE2       94.9440    8.3900   41.7020 O.co2 191  GLU191     -0.2457
    128  N         81.4220   10.6550   32.2620 N.3   219  ASP219     -0.1239
    129  CA        82.8090   10.5100   32.7120 C.3   219  ASP219      0.1674
    130  C         83.2960    9.1470   32.2190 C.2   219  ASP219      0.2266
    131  O         83.2620    8.1820   32.9540 O.2   219  ASP219     -0.2867
    132  CB        82.9040   10.5630   34.2310 C.3   219  ASP219      0.1410
    133  CG        84.3090   10.3460   34.7310 C.2   219  ASP219      0.3668
    134  OD1       84.8810    9.2640   34.4770 O.co2 219  ASP219     -0.2456
    135  OD2       84.8470   11.2660   35.3830 O.co2 219  ASP219     -0.2456
    136  N         85.3090    6.3000   31.9170 N.3   221  GLY221     -0.1225
    137  CA        86.4600    5.7090   32.5530 C.3   221  GLY221      0.1811
    138  C         86.2300    4.2880   32.9640 C.2   221  GLY221      0.2280
    139  O         87.0290    3.7140   33.6800 O.2   221  GLY221     -0.2866
@<TRIPOS>BOND
     1    57    56    2
     2    56    55    1
     3    55    58    1
     4    55    54    1
     5    48    47    2
     6    58    59    1
     7    47    54   am
     8    47    46    1
     9    46    45    1
    10    46    49    1
    11    59    60    1
    12   110   109    2
    13    60    61    2
    14    60    62   am
    15    49    50    1
    16    63    64    1
    17    50    51    1
    18   109   108    1
    19   109   111   am
    20   108   107    1
    21    65    64    1
    22    65    66    2
    23   112   113    1
    24   112   111    1
    25   112   115    1
    26    64    67    1
    27   113   114    2
    28   102   101    2
    29    51    52    1
    30   107   101   am
    31   115   116    1
    32     4     3    2
    33     3     2    1
    34   101   100    1
    35     9    10    1
    36     1     2    1
    37    67    68    1
    38    67    69    1
    39    52    53    1
    40    10    11    1
    41    68    70    1
    42   136   137    1
    43    12    11    2
    44     2     5    1
    45   130   129    1
    46   130   131    2
    47   128   129    1
    48    11    13   am
    49    99   100    1
    50   116   117   ar
    51   116   118   ar
    52   137   138    1
    53   100   103    1
    54   129   132    1
    55    71    72    1
    56    16    15    2
    57   138   139    2
    58    26    25    2
    59     5     6    1
    60   103   104    1
    61    24    25    1
    62    24    23    1
    63    13    14    1
    64    20    19    2
    65    37    36    2
    66    25    27   am
    67    15    14    1
    68    15    17   am
    69    36    35    1
    70    19    23   am
    71    19    18    1
    72   132   133    1
    73     7     6    1
    74    72    73    1
    75    72    75    1
    76    74    73    2
    77   134   133   ar
    78    75    76    1
    79     6     8    1
    80    18    17    1
    81    18    21    1
    82   133   135   ar
    83   104   106    1
    84   104   105    1
    85    30    29    2
    86    27    28    1
    87    35    34    1
    88    35    38    1
    89    29    34   am
    90    29    28    1
    91    78    77    2
    92    28    31    1
    93    38    39    1
    94    21    22    1
    95    76    77    1
    96    77    79   am
    97    31    33    1
    98    31    32    1
    99    39    40    1
   100    86    80    1
   101    86    85    1
   102    41    40    1
   103    41    42    2
   104    84    85    1
   105    84    81    1
   106    44    42    1
   107    80    81    1
   108    42    43    1
   109    81    82    1
   110    98    96    1
   111    97    96    1
   112    94    93    2
   113    96    95    1
   114    95    92    1
   115    92    93    1
   116    92    91    1
   117    90    89    2
   118    82    83    2
   119    89    91   am
   120    89    88    1
   121    87    88    1
   122   127   125   ar
   123   126   125   ar
   124   125   124    1
   125   124   123    1
   126   123   120    1
   127   120   121    1
   128   120   119    1
   129   121   122    2
