@<TRIPOS>MOLECULE
tmp/1mc5A01.pdb
 176 165 0 0 0
SMALL
GASTEIGER

@<TRIPOS>ATOM
      1  N         59.0670   14.1370   -5.8930 N.3    44  CYS44      -0.1235
      2  CA        59.0150   14.3370   -4.4570 C.3    44  CYS44       0.1677
      3  C         57.7000   13.7240   -4.0050 C.2    44  CYS44       0.2270
      4  O         56.7770   13.5960   -4.8090 O.2    44  CYS44      -0.2867
      5  CB        59.0450   15.8280   -4.1450 C.3    44  CYS44       0.0956
      6  SG        58.9290   16.1990   -2.3950 S.3    44  CYS44      -0.0801
      7  N         55.4930   14.9870   -2.3510 N.3    46  THR46      -0.1218
      8  CA        54.4840   16.0310   -2.4550 C.3    46  THR46       0.1862
      9  C         53.7760   15.9900   -3.8150 C.2    46  THR46       0.2287
     10  O         52.6260   16.4080   -3.9370 O.2    46  THR46      -0.2866
     11  CB        55.1260   17.4100   -2.2330 C.3    46  THR46       0.1770
     12  OG1       55.9440   17.3660   -1.0570 O.3    46  THR46      -0.2211
     13  CG2       54.0570   18.4690   -2.0410 C.3    46  THR46       0.0375
     14  N         51.3770   13.2340   -3.3560 N.3    49  TYR49      -0.1241
     15  CA        50.4350   13.7610   -2.3640 C.3    49  TYR49       0.1605
     16  C         49.3010   14.4990   -3.0800 C.2    49  TYR49       0.2264
     17  O         48.1270   14.3230   -2.7460 O.2    49  TYR49      -0.2867
     18  CB        51.1940   14.7090   -1.4150 C.3    49  TYR49       0.0534
     19  CG        50.3610   15.6200   -0.5230 C.ar   49  TYR49      -0.0201
     20  CD1       49.6890   15.1280    0.6020 C.ar   49  TYR49      -0.0009
     21  CD2       50.2810   16.9910   -0.7870 C.ar   49  TYR49      -0.0009
     22  CE1       48.9590   15.9880    1.4450 C.ar   49  TYR49       0.0417
     23  CE2       49.5550   17.8530    0.0440 C.ar   49  TYR49       0.0417
     24  CZ        48.9000   17.3490    1.1580 C.ar   49  TYR49       0.1957
     25  OH        48.1960   18.2080    1.9750 O.3    49  TYR49      -0.2866
     26  N         45.4070   17.1330   -1.3110 N.3    55  ASP55      -0.1225
     27  CA        45.9020   18.5030   -1.2990 C.3    55  ASP55       0.1790
     28  C         44.7350   19.4920   -1.2540 C.2    55  ASP55       0.2440
     29  O         43.8440   19.4530   -2.1060 O.2    55  ASP55      -0.2733
     30  CB        46.7430   18.7720   -2.5480 C.3    55  ASP55       0.1423
     31  CG        47.6250   20.0010   -2.4060 C.2    55  ASP55       0.3668
     32  OD1       47.2420   20.9360   -1.6690 O.co2  55  ASP55      -0.2456
     33  OD2       48.7000   20.0390   -3.0430 O.co2  55  ASP55      -0.2456
     34  N         44.7260   20.3880   -0.2480 N.am   56  PRO56      -0.2718
     35  CA        43.6740   21.3970   -0.0820 C.3    56  PRO56       0.1535
     36  C         43.4920   22.2530   -1.3370 C.2    56  PRO56       0.2598
     37  O         42.4020   22.7610   -1.6080 O.2    56  PRO56      -0.2715
     38  CB        44.1730   22.2150    1.1070 C.3    56  PRO56       0.0310
     39  CG        44.8710   21.1880    1.9340 C.3    56  PRO56       0.0237
     40  CD        45.6650   20.4330    0.8890 C.3    56  PRO56       0.0939
     41  N         44.5650   22.4050   -2.1040 N.am   57  GLU57      -0.1978
     42  CA        44.5110   23.1960   -3.3220 C.3    57  GLU57       0.1602
     43  C         44.9380   22.4160   -4.5650 C.2    57  GLU57       0.2287
     44  O         45.6790   22.9240   -5.4050 O.2    57  GLU57      -0.2864
     45  CB        45.3610   24.4630   -3.1530 C.3    57  GLU57       0.0415
     46  CG        46.5410   24.3120   -2.2000 C.3    57  GLU57       0.1163
     47  CD        47.2210   25.6390   -1.8790 C.2    57  GLU57       0.3649
     48  OE1       48.1450   25.6420   -1.0380 O.co2  57  GLU57      -0.2457
     49  OE2       46.8360   26.6760   -2.4650 O.co2  57  GLU57      -0.2457
     50  N         58.1870   19.6040   -9.1110 N.3    66  HIS66      -0.1241
     51  CA        58.7720   20.8020   -8.5330 C.3    66  HIS66       0.1621
     52  C         60.2550   20.6350   -8.2010 C.2    66  HIS66       0.2264
     53  O         60.8670   21.5170   -7.5920 O.2    66  HIS66      -0.2867
     54  CB        57.9840   21.2420   -7.2900 C.3    66  HIS66       0.0745
     55  CG        57.8890   20.1950   -6.2240 C.ar   66  HIS66       0.0817
     56  ND1       57.1700   19.0280   -6.3870 N.ar   66  HIS66      -0.2268
     57  CD2       58.4150   20.1420   -4.9790 C.ar   66  HIS66       0.1154
     58  CE1       57.2570   18.3050   -5.2850 C.ar   66  HIS66       0.1986
     59  NE2       58.0080   18.9590   -4.4160 N.ar   66  HIS66      -0.2212
     60  N         59.7630   26.6620   -6.1900 N.3    92  TYR92      -0.1227
     61  CA        58.3400   26.6870   -5.8550 C.3    92  TYR92       0.1736
     62  C         58.0840   27.7290   -4.7710 C.2    92  TYR92       0.2595
     63  O         56.9400   28.0710   -4.4710 O.2    92  TYR92      -0.2718
     64  CB        57.8350   25.3140   -5.4040 C.3    92  TYR92       0.0548
     65  CG        58.5450   24.7010   -4.2160 C.ar   92  TYR92      -0.0200
     66  CD1       59.5430   23.7440   -4.3990 C.ar   92  TYR92      -0.0009
     67  CD2       58.1750   25.0220   -2.9090 C.ar   92  TYR92      -0.0009
     68  CE1       60.1490   23.1120   -3.3100 C.ar   92  TYR92       0.0417
     69  CE2       58.7810   24.3960   -1.8130 C.ar   92  TYR92       0.0417
     70  CZ        59.7630   23.4410   -2.0250 C.ar   92  TYR92       0.1957
     71  OH        60.3590   22.8030   -0.9630 O.3    92  TYR92      -0.2866
     72  N         59.1720   28.2210   -4.1900 N.am   93  ILE93      -0.1980
     73  CA        59.1290   29.2590   -3.1720 C.3    93  ILE93       0.1595
     74  C         60.0050   30.3560   -3.7470 C.2    93  ILE93       0.2287
     75  O         61.2250   30.2300   -3.7880 O.2    93  ILE93      -0.2864
     76  CB        59.6910   28.7600   -1.8310 C.3    93  ILE93       0.0276
     77  CG1       58.6270   27.9080   -1.1370 C.3    93  ILE93       0.0022
     78  CG2       60.1020   29.9360   -0.9490 C.3    93  ILE93       0.0022
     79  CD1       59.0210   27.4370    0.2270 C.3    93  ILE93       0.0001
     80  N         59.2720   32.8340    3.0910 N.3   109  LEU109     -0.1245
     81  CA        57.9740   32.7250    2.4240 C.3   109  LEU109      0.1561
     82  C         57.4630   33.9540    1.6790 C.2   109  LEU109      0.2260
     83  O         56.5360   34.6270    2.1280 O.2   109  LEU109     -0.2867
     84  CB        56.9200   32.2860    3.4400 C.3   109  LEU109      0.0270
     85  CG        57.2150   30.9510    4.1300 C.3   109  LEU109      0.0019
     86  CD1       56.1000   30.6000    5.0980 C.3   109  LEU109      0.0001
     87  CD2       57.3770   29.8620    3.0790 C.3   109  LEU109      0.0001
     88  N         55.3150   36.1620   -0.5330 N.3   111  GLN111     -0.1245
     89  CA        53.8860   36.0020   -0.8260 C.3   111  GLN111      0.1566
     90  C         53.4410   36.6390   -2.1380 C.2   111  GLN111      0.2260
     91  O         52.2880   36.4980   -2.5480 O.2   111  GLN111     -0.2867
     92  CB        53.0480   36.5820    0.3140 C.3   111  GLN111      0.0367
     93  CG        53.2780   35.9210    1.6590 C.3   111  GLN111      0.0905
     94  CD        52.9990   34.4310    1.6380 C.2   111  GLN111      0.2608
     95  OE1       53.9210   33.6130    1.6960 O.2   111  GLN111     -0.2717
     96  NE2       51.7200   34.0650    1.5510 N.am  111  GLN111     -0.0878
     97  N         51.9120   33.9180   -4.2930 N.3   114  ARG114     -0.1245
     98  CA        51.3730   32.7350   -3.6400 C.3   114  ARG114      0.1563
     99  C         49.9280   32.4110   -4.0350 C.2   114  ARG114      0.2260
    100  O         49.5850   31.2460   -4.2720 O.2   114  ARG114     -0.2867
    101  CB        51.4790   32.8980   -2.1190 C.3   114  ARG114      0.0307
    102  CG        51.1080   31.6570   -1.3400 C.3   114  ARG114      0.0489
    103  CD        52.0150   30.4910   -1.7140 C.3   114  ARG114      0.2205
    104  NE        51.6260   29.2560   -1.0380 N.pl3 114  ARG114     -0.0865
    105  CZ        50.5300   28.5590   -1.3120 C.cat 114  ARG114      0.5346
    106  NH1       49.6940   28.9680   -2.2630 N.pl3 114  ARG114      0.1354
    107  NH2       50.2680   27.4490   -0.6340 N.pl3 114  ARG114      0.1354
    108  N         52.7240   24.2910   -8.2580 N.3   140  MET140     -0.1245
    109  CA        53.7670   24.8270   -7.3900 C.3   140  MET140      0.1570
    110  C         54.6700   25.8330   -8.1010 C.2   140  MET140      0.2261
    111  O         55.8150   26.0550   -7.6980 O.2   140  MET140     -0.2867
    112  CB        54.5930   23.6770   -6.8070 C.3   140  MET140      0.0387
    113  CG        53.7920   22.7760   -5.8700 C.3   140  MET140      0.0595
    114  SD        54.7440   21.4510   -5.0760 S.3   140  MET140     -0.1393
    115  CE        55.9210   22.4170   -4.0680 C.3   140  MET140      0.0692
    116  N         64.0620   20.6310   -3.9990 N.3   173  CYS173     -0.1235
    117  CA        63.1820   20.3970   -2.8670 C.3   173  CYS173      0.1677
    118  C         63.7350   19.5390   -1.7360 C.2   173  CYS173      0.2270
    119  O         64.4260   20.0430   -0.8480 O.2   173  CYS173     -0.2867
    120  CB        61.8690   19.8000   -3.3540 C.3   173  CYS173      0.0956
    121  SG        60.6740   19.7140   -2.0540 S.3   173  CYS173     -0.0801
    122  N         65.4160   21.0270    1.6100 N.3   177  THR177     -0.1218
    123  CA        64.4670   21.1130    2.7090 C.3   177  THR177      0.1862
    124  C         64.9820   20.4520    3.9800 C.2   177  THR177      0.2287
    125  O         65.0830   21.0990    5.0270 O.2   177  THR177     -0.2866
    126  CB        63.1260   20.4650    2.3370 C.3   177  THR177      0.1770
    127  OG1       62.5540   21.1630    1.2220 O.3   177  THR177     -0.2211
    128  CG2       62.1650   20.5240    3.5180 C.3   177  THR177      0.0375
    129  N         58.2450   18.8530    9.1720 N.3   291  VAL291     -0.1245
    130  CA        58.6260   19.0500    7.7760 C.3   291  VAL291      0.1561
    131  C         57.5910   18.4020    6.8500 C.2   291  VAL291      0.2260
    132  O         57.2820   18.9330    5.7850 O.2   291  VAL291     -0.2867
    133  CB        60.0180   18.4430    7.4750 C.3   291  VAL291      0.0252
    134  CG1       60.4620   18.8250    6.0710 C.3   291  VAL291      0.0019
    135  CG2       61.0240   18.9330    8.4890 C.3   291  VAL291      0.0019
    136  N         54.1790   17.1400    5.0470 N.3   293  VAL293     -0.1231
    137  CA        52.9460   17.8260    4.6740 C.3   293  VAL293      0.1692
    138  C         51.7250   16.9490    4.9760 C.2   293  VAL293      0.2591
    139  O         51.5540   15.8850    4.3820 O.2   293  VAL293     -0.2718
    140  CB        52.9640   18.1760    3.1770 C.3   293  VAL293      0.0266
    141  CG1       51.6370   18.7880    2.7670 C.3   293  VAL293      0.0020
    142  CG2       54.1230   19.1260    2.8890 C.3   293  VAL293      0.0020
    143  N         50.8720   17.4000    5.8910 N.am  294  ALA294     -0.1980
    144  CA        49.6870   16.6290    6.2700 C.3   294  ALA294      0.1597
    145  C         48.4880   16.7450    5.3150 C.2   294  ALA294      0.2287
    146  O         48.3540   17.7170    4.5640 O.2   294  ALA294     -0.2864
    147  CB        49.2620   17.0030    7.6890 C.3   294  ALA294      0.0319
    148  N         44.7740   17.3770    4.0430 N.3   296  SER296     -0.1217
    149  CA        43.7770   18.4100    4.3150 C.3   296  SER296      0.1889
    150  C         42.8810   18.1200    5.5120 C.2   296  SER296      0.2288
    151  O         42.4030   16.9960    5.6960 O.2   296  SER296     -0.2866
    152  CB        42.8980   18.6330    3.0790 C.3   296  SER296      0.2089
    153  OG        42.2030   17.4480    2.7340 O.3   296  SER296     -0.2183
    154  N         58.6540   24.0030    8.9080 N.3   316  THR316     -0.1203
    155  CA        59.4820   24.6200    7.8760 C.3   316  THR316      0.1994
    156  C         58.9650   24.3600    6.4680 C.2   316  THR316      0.2618
    157  O         58.1690   23.4440    6.2390 O.2   316  THR316     -0.2717
    158  CB        60.9400   24.1160    7.9410 C.3   316  THR316      0.1784
    159  OG1       61.7620   24.9260    7.0950 O.3   316  THR316     -0.2211
    160  CG2       61.0280   22.6750    7.4570 C.3   316  THR316      0.0376
    161  N         59.4310   25.1810    5.5320 N.am  317  ALA317     -0.1965
    162  CA        59.0670   25.0590    4.1280 C.3   317  ALA317      0.1728
    163  C         60.3430   25.2970    3.3320 C.2   317  ALA317      0.2616
    164  O         60.9960   26.3340    3.4780 O.2   317  ALA317     -0.2715
    165  CB        58.0160   26.0860    3.7580 C.3   317  ALA317      0.0334
    166  N         60.7010   24.3190    2.5070 N.am  318  PHE318     -0.1974
    167  CA        61.9010   24.3880    1.6950 C.3   318  PHE318      0.1639
    168  C         63.1160   24.6740    2.5710 C.2   318  PHE318      0.2290
    169  O         64.0570   25.3520    2.1540 O.2   318  PHE318     -0.2864
    170  CB        61.7570   25.4580    0.6100 C.3   318  PHE318      0.0560
    171  CG        62.8440   25.4140   -0.4270 C.ar  318  PHE318     -0.0200
    172  CD1       63.0720   24.2510   -1.1650 C.ar  318  PHE318     -0.0042
    173  CD2       63.6620   26.5180   -0.6460 C.ar  318  PHE318     -0.0042
    174  CE1       64.0980   24.1860   -2.1020 C.ar  318  PHE318     -0.0003
    175  CE2       64.6970   26.4680   -1.5840 C.ar  318  PHE318     -0.0003
    176  CZ        64.9170   25.3000   -2.3140 C.ar  318  PHE318     -0.0000
@<TRIPOS>BOND
     1    50    51    1
     2    51    52    1
     3    51    54    1
     4   108   109    1
     5    52    53    2
     6   110   111    2
     7   110   109    1
     8   109   112    1
     9    54    55    1
    10   112   113    1
    11    56    55   ar
    12    56    58   ar
    13    55    57   ar
    14    60    61    1
    15     1     2    1
    16   113   114    1
    17    61    64    1
    18    61    62    1
    19    44    43    2
    20    64    65    1
    21    58    59   ar
    22   114   115    1
    23    57    59   ar
    24     4     3    2
    25    62    63    2
    26    62    72   am
    27    43    42    1
    28     2     5    1
    29     2     3    1
    30    66    65   ar
    31    66    68   ar
    32    97    98    1
    33   100    99    2
    34    65    67   ar
    35    72    73    1
    36     5     6    1
    37    99    98    1
    38   116   117    1
    39    10     9    2
    40     9     8    1
    41    75    74    2
    42    74    73    1
    43    98   101    1
    44    14    15    1
    45   120   117    1
    46   120   121    1
    47    42    45    1
    48    42    41    1
    49    68    70   ar
    50    73    76    1
    51    45    46    1
    52    16    17    2
    53    16    15    1
    54    33    31   ar
    55    67    69   ar
    56   117   118    1
    57    91    90    2
    58    30    31    1
    59    30    27    1
    60    49    47   ar
    61     8     7    1
    62     8    11    1
    63    31    32   ar
    64    15    18    1
    65   176   174   ar
    66   176   175   ar
    67   106   105    1
    68    11    13    1
    69    11    12    1
    70    46    47    1
    71    90    89    1
    72   101   102    1
    73    29    28    2
    74    41    36   am
    75   174   172   ar
    76    70    69   ar
    77    70    71    1
    78    47    48   ar
    79    76    77    1
    80    76    78    1
    81   118   119    2
    82   103   102    1
    83   103   104    1
    84    37    36    2
    85   175   173   ar
    86    18    19    1
    87    36    35    1
    88   105   104    2
    89   105   107    1
    90    26    27    1
    91    27    28    1
    92    28    34   am
    93   172   171   ar
    94    77    79    1
    95    89    88    1
    96    89    92    1
    97    21    19   ar
    98    21    23   ar
    99   173   171   ar
   100    19    20   ar
   101   171   170    1
   102    34    35    1
   103    34    40    1
   104    35    38    1
   105    23    24   ar
   106    92    93    1
   107    20    22   ar
   108   170   167    1
   109    40    39    1
   110    38    39    1
   111    24    22   ar
   112    24    25    1
   113   127   126    1
   114    96    94   am
   115   122   123    1
   116    94    93    1
   117    94    95    2
   118    82    83    2
   119    82    81    1
   120   167   166    1
   121   167   168    1
   122   169   168    2
   123   126   123    1
   124   126   128    1
   125    81    80    1
   126    81    84    1
   127   166   163   am
   128   123   124    1
   129   153   152    1
   130   141   140    1
   131   142   140    1
   132    87    85    1
   133   152   149    1
   134   140   137    1
   135   163   164    2
   136   163   162    1
   137    84    85    1
   138   165   162    1
   139   124   125    2
   140   148   149    1
   141   162   161    1
   142    85    86    1
   143   149   150    1
   144   139   138    2
   145   146   145    2
   146   137   138    1
   147   137   136    1
   148   138   143   am
   149   145   144    1
   150   150   151    2
   151   161   156   am
   152   132   131    2
   153   143   144    1
   154   134   133    1
   155   157   156    2
   156   144   147    1
   157   156   155    1
   158   131   130    1
   159   159   158    1
   160   160   158    1
   161   133   130    1
   162   133   135    1
   163   130   129    1
   164   155   158    1
   165   155   154    1
