@<TRIPOS>MOLECULE
tmp/1mc9A00.pdb
 84 80 0 0 0
SMALL
GASTEIGER

@<TRIPOS>ATOM
      1  N         28.9220   12.5910   11.0550 N.3    24  GLY24      -0.1225
      2  CA        29.8550   11.6010   10.5720 C.3    24  GLY24       0.1811
      3  C         30.2130   11.6870    9.1030 C.2    24  GLY24       0.2280
      4  O         31.1100   10.9770    8.6530 O.2    24  GLY24      -0.2866
      5  N         34.9220   18.5700   12.4840 N.3    57  ASP57      -0.1225
      6  CA        35.0750   17.6960   13.6380 C.3    57  ASP57       0.1805
      7  C         36.0520   16.5650   13.3270 C.2    57  ASP57       0.2598
      8  O         35.8950   15.8490   12.3350 O.2    57  ASP57      -0.2718
      9  CB        33.6800   17.1750   14.0150 C.3    57  ASP57       0.1424
     10  CG        33.6950   16.1550   15.1300 C.2    57  ASP57       0.3668
     11  OD1       34.5060   15.2040   15.0860 O.co2  57  ASP57      -0.2456
     12  OD2       32.9110   16.2410   16.0960 O.co2  57  ASP57      -0.2456
     13  N         37.0630   16.4220   14.1800 N.am   58  ALA58      -0.1966
     14  CA        38.0390   15.3460   14.0750 C.3    58  ALA58       0.1728
     15  C         37.5360   14.1460   14.8540 C.2    58  ALA58       0.2616
     16  O         37.1930   14.2520   16.0370 O.2    58  ALA58      -0.2715
     17  CB        39.4160   15.7950   14.6140 C.3    58  ALA58       0.0334
     18  N         37.4910   13.0070   14.1750 N.am   59  ALA59      -0.1963
     19  CA        37.0840   11.7500   14.7740 C.3    59  ALA59       0.1728
     20  C         38.3400   11.0500   15.2720 C.2    59  ALA59       0.2616
     21  O         38.7870   10.0580   14.7010 O.2    59  ALA59      -0.2715
     22  CB        36.3680   10.8930   13.7550 C.3    59  ALA59       0.0334
     23  N         38.9310   11.5970   16.3170 N.am   60  GLY60      -0.1955
     24  CA        40.1030   11.0060   16.9200 C.3    60  GLY60       0.1869
     25  C         41.2890   11.9410   16.8430 C.2    60  GLY60       0.2309
     26  O         41.2000   13.0650   16.3360 O.2    60  GLY60      -0.2863
     27  N         39.3910   10.4620   10.4820 N.3    66  LYS66      -0.1245
     28  CA        38.4360   11.1280    9.6020 C.3    66  LYS66       0.1561
     29  C         38.1560   12.5500   10.0800 C.2    66  LYS66       0.2260
     30  O         38.0450   12.8070   11.2710 O.2    66  LYS66      -0.2867
     31  CB        37.1350   10.3080    9.5520 C.3    66  LYS66       0.0271
     32  CG        35.8990   11.0400    9.0730 C.3    66  LYS66       0.0035
     33  CD        34.7090   10.0860    8.9480 C.3    66  LYS66       0.0206
     34  CE        34.0910    9.7000   10.2800 C.3    66  LYS66       0.1093
     35  NZ        32.8120    8.9500   10.0730 N.3    66  LYS66      -0.1314
     36  N         35.1580   15.2060    9.6710 N.3    68  GLN68      -0.1245
     37  CA        33.7470   15.0350    9.3660 C.3    68  GLN68       0.1566
     38  C         32.9770   16.2600    9.8040 C.2    68  GLN68       0.2260
     39  O         33.5210   17.1270   10.4880 O.2    68  GLN68      -0.2867
     40  CB        33.2180   13.8100   10.1240 C.3    68  GLN68       0.0367
     41  CG        33.1590   14.0450   11.6450 C.3    68  GLN68       0.0905
     42  CD        33.0880   12.7860   12.4730 C.2    68  GLN68       0.2608
     43  OE1       32.6760   11.7380   11.9940 O.2    68  GLN68      -0.2717
     44  NE2       33.4660   12.8980   13.7380 N.am   68  GLN68      -0.0878
     45  N         29.8020   17.3520   12.2570 N.3    70  TYR70      -0.1227
     46  CA        29.1180   16.8680   13.4340 C.3    70  TYR70       0.1736
     47  C         28.3950   18.0260   14.0790 C.2    70  TYR70       0.2596
     48  O         28.8250   19.1670   13.9870 O.2    70  TYR70      -0.2718
     49  CB        30.0910   16.2330   14.4390 C.3    70  TYR70       0.0548
     50  CG        29.5700   14.9350   14.9870 C.ar   70  TYR70      -0.0200
     51  CD1       29.9050   13.7290   14.3790 C.ar   70  TYR70      -0.0009
     52  CD2       28.7200   14.9010   16.0880 C.ar   70  TYR70      -0.0009
     53  CE1       29.4260   12.5250   14.8610 C.ar   70  TYR70       0.0417
     54  CE2       28.2230   13.6960   16.5740 C.ar   70  TYR70       0.0417
     55  CZ        28.5850   12.5150   15.9580 C.ar   70  TYR70       0.1957
     56  OH        28.1010   11.3160   16.4180 O.3    70  TYR70      -0.2866
     57  N         27.2840   17.7360   14.7380 N.am   71  SER71      -0.1952
     58  CA        26.6070   18.7490   15.5240 C.3    71  SER71       0.1924
     59  C         27.6350   19.4460   16.4260 C.2    71  SER71       0.2314
     60  O         28.4590   18.7820   17.0670 O.2    71  SER71      -0.2863
     61  CB        25.5040   18.1210   16.3620 C.3    71  SER71       0.2116
     62  OG        24.4550   17.6430   15.5370 O.3    71  SER71      -0.2180
     63  N         29.2080   20.9980   19.5980 N.3    73  TRP73      -0.1241
     64  CA        28.9600   20.7370   21.0150 C.3    73  TRP73       0.1605
     65  C         29.9800   21.2830   22.0130 C.2    73  TRP73       0.2264
     66  O         29.7680   21.1760   23.2180 O.2    73  TRP73      -0.2867
     67  CB        28.7460   19.2380   21.2540 C.3    73  TRP73       0.0550
     68  CG        29.8930   18.3200   20.9510 C.ar   73  TRP73       0.0003
     69  CD1       30.1400   17.6810   19.7710 C.ar   73  TRP73       0.0946
     70  CD2       30.9060   17.8750   21.8630 C.ar   73  TRP73       0.0152
     71  NE1       31.2510   16.8840   19.8860 N.ar   73  TRP73      -0.2442
     72  CE2       31.7390   16.9780   21.1620 C.ar   73  TRP73       0.0810
     73  CE3       31.2030   18.1520   23.2050 C.ar   73  TRP73       0.0012
     74  CZ2       32.8480   16.3660   21.7480 C.ar   73  TRP73       0.0191
     75  CZ3       32.2940   17.5330   23.7890 C.ar   73  TRP73       0.0001
     76  CH2       33.1060   16.6500   23.0610 C.ar   73  TRP73       0.0015
     77  N         38.0210   18.6240   19.8570 N.3    77  ASN77      -0.1240
     78  CA        38.1770   18.0380   18.5290 C.3    77  ASN77       0.1653
     79  C         37.3570   18.7820   17.4720 C.2    77  ASN77       0.2266
     80  O         37.3880   18.4300   16.2970 O.2    77  ASN77      -0.2867
     81  CB        37.7710   16.5690   18.5460 C.3    77  ASN77       0.1155
     82  CG        36.3090   16.3680   18.9040 C.2    77  ASN77       0.2627
     83  OD1       35.8270   16.8670   19.9350 O.2    77  ASN77      -0.2716
     84  ND2       35.5930   15.6330   18.0620 N.am   77  ASN77      -0.0877
@<TRIPOS>BOND
     1     4     3    2
     2    33    32    1
     3    33    34    1
     4    32    31    1
     5     3     2    1
     6    37    36    1
     7    37    38    1
     8    37    40    1
     9    31    28    1
    10    28    29    1
    11    28    27    1
    12    38    39    2
    13    35    34    1
    14    29    30    2
    15    40    41    1
    16     2     1    1
    17    41    42    1
    18    43    42    2
    19    45    46    1
    20     8     7    2
    21    42    44   am
    22     5     6    1
    23     7     6    1
    24     7    13   am
    25    46    47    1
    26    46    49    1
    27     6     9    1
    28    22    19    1
    29    48    47    2
    30     9    10    1
    31    14    13    1
    32    14    17    1
    33    14    15    1
    34    47    57   am
    35    18    19    1
    36    18    15   am
    37    51    53   ar
    38    51    50   ar
    39    49    50    1
    40    21    20    2
    41    57    58    1
    42    19    20    1
    43    15    16    2
    44    53    55   ar
    45    50    52   ar
    46    11    10   ar
    47    10    12   ar
    48    20    23   am
    49    58    61    1
    50    58    59    1
    51    62    61    1
    52    55    56    1
    53    55    54   ar
    54    52    54   ar
    55    80    79    2
    56    23    24    1
    57    26    25    2
    58    59    60    2
    59    25    24    1
    60    79    78    1
    61    84    82   am
    62    78    81    1
    63    78    77    1
    64    81    82    1
    65    82    83    2
    66    63    64    1
    67    69    71   ar
    68    69    68   ar
    69    71    72   ar
    70    68    67    1
    71    68    70   ar
    72    64    67    1
    73    64    65    1
    74    72    74   ar
    75    72    70   ar
    76    74    76   ar
    77    70    73   ar
    78    65    66    2
    79    76    75   ar
    80    73    75   ar
