@<TRIPOS>MOLECULE
tmp/1mccB00.pdb
 106 103 0 0 0
SMALL
GASTEIGER

@<TRIPOS>ATOM
      1  N         30.1420  -33.5520   93.1360 N.3    34  TYR34      -0.1241
      2  CA        30.1870  -32.1430   92.7340 C.3    34  TYR34       0.1605
      3  C         30.8290  -31.2570   93.8110 C.2    34  TYR34       0.2264
      4  O         30.1060  -30.4450   94.4280 O.2    34  TYR34      -0.2867
      5  CB        28.8460  -31.5590   92.3850 C.3    34  TYR34       0.0534
      6  CG        28.0820  -31.7800   91.1320 C.ar   34  TYR34      -0.0201
      7  CD1       28.3010  -30.9970   89.9890 C.ar   34  TYR34      -0.0009
      8  CD2       27.0230  -32.7040   91.0800 C.ar   34  TYR34      -0.0009
      9  CE1       27.5340  -31.1480   88.8340 C.ar   34  TYR34       0.0417
     10  CE2       26.2520  -32.8750   89.9310 C.ar   34  TYR34       0.0417
     11  CZ        26.5110  -32.0880   88.8190 C.ar   34  TYR34       0.1957
     12  OH        25.7600  -32.2090   87.6830 O.3    34  TYR34      -0.2866
     13  N         33.6020  -28.4030   93.9720 N.3    36  SER36      -0.1217
     14  CA        34.5610  -27.5860   93.1410 C.3    36  SER36       0.1889
     15  C         35.3840  -26.6300   94.0040 C.2    36  SER36       0.2288
     16  O         34.8570  -25.9280   94.8950 O.2    36  SER36      -0.2866
     17  CB        33.9680  -26.8940   91.9630 C.3    36  SER36       0.2089
     18  OG        32.8510  -26.0800   92.1380 O.3    36  SER36      -0.2183
     19  N         38.1360  -23.3840   94.4150 N.3    38  TYR38      -0.1241
     20  CA        38.4990  -22.0820   93.8310 C.3    38  TYR38       0.1605
     21  C         39.8070  -21.4830   94.3740 C.2    38  TYR38       0.2264
     22  O         39.9820  -21.3370   95.5930 O.2    38  TYR38      -0.2867
     23  CB        37.4080  -21.0040   94.0240 C.3    38  TYR38       0.0534
     24  CG        36.0310  -21.4730   93.6360 C.ar   38  TYR38      -0.0201
     25  CD1       35.4220  -22.5030   94.3500 C.ar   38  TYR38      -0.0009
     26  CD2       35.3410  -20.9160   92.5630 C.ar   38  TYR38      -0.0009
     27  CE1       34.1620  -22.9730   94.0080 C.ar   38  TYR38       0.0417
     28  CE2       34.0730  -21.3720   92.2100 C.ar   38  TYR38       0.0417
     29  CZ        33.4930  -22.4060   92.9370 C.ar   38  TYR38       0.1957
     30  OH        32.2710  -22.9220   92.6140 O.3    38  TYR38      -0.2866
     31  N         38.0690  -21.0860   89.3190 N.3    48  VAL48      -0.1245
     32  CA        38.0250  -22.5260   89.6800 C.3    48  VAL48       0.1561
     33  C         39.3050  -23.2090   89.2100 C.2    48  VAL48       0.2260
     34  O         39.8020  -22.9350   88.1090 O.2    48  VAL48      -0.2867
     35  CB        36.7060  -23.1810   89.2560 C.3    48  VAL48       0.0252
     36  CG1       35.8840  -22.3550   88.2860 C.3    48  VAL48       0.0019
     37  CG2       36.8980  -24.5980   88.7380 C.3    48  VAL48       0.0019
     38  N         37.0710  -29.0870   89.6320 N.3    51  TYR51      -0.1227
     39  CA        35.6620  -29.3830   89.4030 C.3    51  TYR51       0.1736
     40  C         35.5070  -30.9020   89.5220 C.2    51  TYR51       0.2595
     41  O         36.4680  -31.6770   89.3380 O.2    51  TYR51      -0.2718
     42  CB        35.1370  -28.7790   88.1300 C.3    51  TYR51       0.0548
     43  CG        35.3410  -29.4200   86.7860 C.ar   51  TYR51      -0.0200
     44  CD1       36.5390  -29.2830   86.0810 C.ar   51  TYR51      -0.0009
     45  CD2       34.3060  -30.1440   86.1670 C.ar   51  TYR51      -0.0009
     46  CE1       36.7190  -29.8710   84.8370 C.ar   51  TYR51       0.0417
     47  CE2       34.4710  -30.7320   84.9210 C.ar   51  TYR51       0.0417
     48  CZ        35.6890  -30.5980   84.2610 C.ar   51  TYR51       0.1957
     49  OH        35.9020  -31.1740   83.0320 O.3    51  TYR51      -0.2866
     50  N         34.3190  -31.2960   89.9010 N.am   52  GLU52      -0.1979
     51  CA        33.9310  -32.6680   90.1910 C.3    52  GLU52       0.1602
     52  C         35.0250  -33.5240   90.7860 C.2    52  GLU52       0.2287
     53  O         35.5240  -34.4790   90.1560 O.2    52  GLU52      -0.2864
     54  CB        33.3660  -33.3420   88.9310 C.3    52  GLU52       0.0415
     55  CG        31.9640  -32.8480   88.5680 C.3    52  GLU52       0.1163
     56  CD        31.5820  -32.8160   87.1310 C.2    52  GLU52       0.3649
     57  OE1       32.5300  -32.6080   86.3430 O.co2  52  GLU52      -0.2457
     58  OE2       30.4190  -32.9620   86.7560 O.co2  52  GLU52      -0.2457
     59  N         40.1660  -27.7780   85.5230 N.3    57  PRO57      -0.2116
     60  CA        39.9790  -27.1190   84.2390 C.3    57  PRO57       0.1372
     61  C         41.2700  -26.8580   83.4640 C.2    57  PRO57       0.2244
     62  O         42.4450  -27.0350   83.8450 O.2    57  PRO57      -0.2868
     63  CB        39.2560  -25.8160   84.5830 C.3    57  PRO57       0.0268
     64  CG        38.5920  -26.0940   85.9010 C.3    57  PRO57       0.0207
     65  CD        39.5850  -26.9890   86.6410 C.3    57  PRO57       0.0892
     66  N         33.2400  -25.8590   97.5030 N.3    91  SER91      -0.1202
     67  CA        31.8610  -25.6580   96.9540 C.3    91  SER91       0.2020
     68  C         31.1260  -26.9770   96.8800 C.2    91  SER91       0.2619
     69  O         31.7940  -28.0200   96.6700 O.2    91  SER91      -0.2717
     70  CB        32.0720  -25.0200   95.5730 C.3    91  SER91       0.2103
     71  OG        30.9320  -24.5650   94.9060 O.3    91  SER91      -0.2182
     72  N         29.7970  -26.8960   96.9470 N.am   92  SER92      -0.1937
     73  CA        28.9280  -28.0470   96.6700 C.3    92  SER92       0.2055
     74  C         27.4960  -27.7080   96.2650 C.2    92  SER92       0.2643
     75  O         26.7380  -27.0080   96.9640 O.2    92  SER92      -0.2714
     76  CB        28.9390  -29.0360   97.8410 C.3    92  SER92       0.2130
     77  OG        29.7200  -30.1640   97.4560 O.3    92  SER92      -0.2179
     78  N         27.1210  -28.2760   95.1190 N.am   93  TYR93      -0.1973
     79  CA        25.8170  -28.0230   94.4600 C.3    93  TYR93       0.1639
     80  C         24.8110  -29.0670   94.9740 C.2    93  TYR93       0.2290
     81  O         24.7840  -30.2290   94.5510 O.2    93  TYR93      -0.2864
     82  CB        25.9200  -27.9680   92.9980 C.3    93  TYR93       0.0560
     83  CG        25.0560  -28.3290   91.8610 C.ar   93  TYR93      -0.0198
     84  CD1       24.7860  -29.6590   91.5020 C.ar   93  TYR93      -0.0009
     85  CD2       24.5950  -27.3380   90.9550 C.ar   93  TYR93      -0.0009
     86  CE1       24.0750  -30.0010   90.3590 C.ar   93  TYR93       0.0417
     87  CE2       23.8760  -27.6600   89.8010 C.ar   93  TYR93       0.0417
     88  CZ        23.6250  -29.0010   89.5150 C.ar   93  TYR93       0.1957
     89  OH        22.9150  -29.3600   88.3940 O.3    93  TYR93      -0.2866
     90  N         20.2530  -27.6150   92.1670 N.3    96  SER96      -0.1217
     91  CA        19.9900  -26.2140   91.8180 C.3    96  SER96       0.1889
     92  C         19.1790  -25.5120   92.9040 C.2    96  SER96       0.2288
     93  O         18.1050  -25.9810   93.3270 O.2    96  SER96      -0.2866
     94  CB        19.2980  -26.1650   90.4530 C.3    96  SER96       0.2089
     95  OG        20.2750  -26.2250   89.4120 O.3    96  SER96      -0.2183
     96  N         23.7730  -23.7260   96.8110 N.3    99  PHE99      -0.1241
     97  CA        25.2180  -23.7470   96.4730 C.3    99  PHE99       0.1605
     98  C         25.9910  -23.3870   97.7390 C.2    99  PHE99       0.2264
     99  O         26.2610  -22.2250   98.0420 O.2    99  PHE99      -0.2867
    100  CB        25.5130  -22.8930   95.2460 C.3    99  PHE99       0.0534
    101  CG        24.5090  -23.0500   94.1320 C.ar   99  PHE99      -0.0203
    102  CD1       24.0620  -24.3270   93.7680 C.ar   99  PHE99      -0.0042
    103  CD2       24.0240  -21.9400   93.4540 C.ar   99  PHE99      -0.0042
    104  CE1       23.1410  -24.5010   92.7440 C.ar   99  PHE99      -0.0003
    105  CE2       23.0920  -22.0860   92.4180 C.ar   99  PHE99      -0.0003
    106  CZ        22.6560  -23.3810   92.0670 C.ar   99  PHE99      -0.0000
@<TRIPOS>BOND
     1    49    48    1
     2    61    62    2
     3    61    60    1
     4    60    63    1
     5    60    59    1
     6    48    46   ar
     7    48    47   ar
     8    63    64    1
     9    46    44   ar
    10    47    45   ar
    11    59    65    1
    12    64    65    1
    13    44    43   ar
    14    45    43   ar
    15    57    56   ar
    16    58    56   ar
    17    43    42    1
    18    56    55    1
    19    12    11    1
    20    34    33    2
    21    42    39    1
    22    36    35    1
    23    89    88    1
    24    55    54    1
    25    37    35    1
    26    11     9   ar
    27    11    10   ar
    28     9     7   ar
    29    54    51    1
    30    33    32    1
    31    35    32    1
    32    31    32    1
    33    41    40    2
    34    39    40    1
    35    39    38    1
    36    95    94    1
    37    88    87   ar
    38    88    86   ar
    39    40    50   am
    40    87    85   ar
    41    50    51    1
    42    10     8   ar
    43     7     6   ar
    44    53    52    2
    45    51    52    1
    46    86    84   ar
    47    94    91    1
    48    85    83   ar
    49     8     6   ar
    50     6     5    1
    51    84    83   ar
    52    91    90    1
    53    91    92    1
    54    83    82    1
    55    17    18    1
    56    17    14    1
    57   106   105   ar
    58   106   104   ar
    59    28    26   ar
    60    28    29   ar
    61     5     2    1
    62   105   103   ar
    63    26    24   ar
    64    30    29    1
    65     2     1    1
    66     2     3    1
    67   104   102   ar
    68    92    93    2
    69    29    27   ar
    70    82    79    1
    71    14    13    1
    72    14    15    1
    73   103   101   ar
    74    24    23    1
    75    24    25   ar
    76   102   101   ar
    77     3     4    2
    78    20    23    1
    79    20    21    1
    80    20    19    1
    81    15    16    2
    82    27    25   ar
    83   101   100    1
    84    21    22    2
    85    79    80    1
    86    79    78    1
    87    81    80    2
    88    71    70    1
    89    78    74   am
    90   100    97    1
    91    70    67    1
    92    74    73    1
    93    74    75    2
    94    97    96    1
    95    97    98    1
    96    73    72    1
    97    73    76    1
    98    69    68    2
    99    68    72   am
   100    68    67    1
   101    67    66    1
   102    77    76    1
   103    98    99    2
