@<TRIPOS>MOLECULE
tmp/1mchB00.pdb
 111 109 0 0 0
SMALL
GASTEIGER

@<TRIPOS>ATOM
      1  N         30.1410  -34.0510   93.7420 N.3    34  TYR34      -0.1241
      2  CA        30.6010  -32.7680   93.1690 C.3    34  TYR34       0.1605
      3  C         31.7460  -32.3050   94.0990 C.2    34  TYR34       0.2264
      4  O         32.6390  -33.1180   94.4240 O.2    34  TYR34      -0.2867
      5  CB        29.5210  -31.7010   92.9930 C.3    34  TYR34       0.0534
      6  CG        29.7950  -30.8330   91.7730 C.ar   34  TYR34      -0.0201
      7  CD1       30.7760  -29.8440   91.7940 C.ar   34  TYR34      -0.0009
      8  CD2       29.1290  -31.0910   90.5760 C.ar   34  TYR34      -0.0009
      9  CE1       31.0680  -29.0950   90.6540 C.ar   34  TYR34       0.0417
     10  CE2       29.4130  -30.3570   89.4270 C.ar   34  TYR34       0.0417
     11  CZ        30.3870  -29.3540   89.4680 C.ar   34  TYR34       0.1957
     12  OH        30.6920  -28.6310   88.3530 O.3    34  TYR34      -0.2866
     13  N         33.6240  -28.4890   93.7940 N.3    36  SER36      -0.1217
     14  CA        34.6600  -27.7210   93.0690 C.3    36  SER36       0.1889
     15  C         35.5490  -26.9600   94.0600 C.2    36  SER36       0.2288
     16  O         35.3310  -27.0230   95.2900 O.2    36  SER36      -0.2866
     17  CB        34.0190  -26.7920   92.0540 C.3    36  SER36       0.2089
     18  OG        32.9660  -26.0400   92.6170 O.3    36  SER36      -0.2183
     19  N         38.2140  -23.1980   94.2140 N.3    38  TYR38      -0.1241
     20  CA        38.5650  -21.8800   93.7160 C.3    38  TYR38       0.1605
     21  C         39.8260  -21.3000   94.3440 C.2    38  TYR38       0.2264
     22  O         40.2000  -21.6860   95.4710 O.2    38  TYR38      -0.2867
     23  CB        37.3700  -20.8550   93.9610 C.3    38  TYR38       0.0534
     24  CG        36.0850  -21.4110   93.3780 C.ar   38  TYR38      -0.0201
     25  CD1       35.7790  -21.2650   92.0240 C.ar   38  TYR38      -0.0009
     26  CD2       35.2410  -22.1880   94.1700 C.ar   38  TYR38      -0.0009
     27  CE1       34.6510  -21.8700   91.4760 C.ar   38  TYR38       0.0417
     28  CE2       34.1180  -22.8030   93.6340 C.ar   38  TYR38       0.0417
     29  CZ        33.8220  -22.6430   92.2880 C.ar   38  TYR38       0.1957
     30  OH        32.6890  -23.2380   91.7970 O.3    38  TYR38      -0.2866
     31  N         38.4240  -14.4710   90.9180 N.3    46  PRO46      -0.2116
     32  CA        38.4730  -15.8960   91.2810 C.3    46  PRO46       0.1372
     33  C         38.6120  -16.8180   90.0820 C.2    46  PRO46       0.2244
     34  O         38.0850  -16.5310   88.9920 O.2    46  PRO46      -0.2868
     35  CB        37.2060  -16.1390   92.0800 C.3    46  PRO46       0.0268
     36  CG        36.4720  -14.8320   92.1510 C.3    46  PRO46       0.0207
     37  CD        37.4980  -13.7560   91.8700 C.3    46  PRO46       0.0892
     38  N         38.7730  -21.1360   88.8300 N.3    48  VAL48      -0.1245
     39  CA        38.3660  -22.5320   89.0650 C.3    48  VAL48       0.1561
     40  C         39.6110  -23.4180   88.8620 C.2    48  VAL48       0.2260
     41  O         40.1750  -23.4100   87.7520 O.2    48  VAL48      -0.2867
     42  CB        37.2180  -22.9600   88.1200 C.3    48  VAL48       0.0252
     43  CG1       36.9530  -24.4710   88.1480 C.3    48  VAL48       0.0019
     44  CG2       35.9410  -22.1750   88.3860 C.3    48  VAL48       0.0019
     45  N         37.2960  -28.9020   89.3960 N.3    51  TYR51      -0.1227
     46  CA        35.8390  -29.1100   89.2510 C.3    51  TYR51       0.1736
     47  C         35.5050  -30.5870   89.4100 C.2    51  TYR51       0.2595
     48  O         36.3070  -31.5250   89.1780 O.2    51  TYR51      -0.2718
     49  CB        35.3080  -28.3960   87.9810 C.3    51  TYR51       0.0548
     50  CG        35.4760  -29.1380   86.6810 C.ar   51  TYR51      -0.0200
     51  CD1       36.6890  -29.1490   86.0050 C.ar   51  TYR51      -0.0009
     52  CD2       34.4260  -29.9040   86.1630 C.ar   51  TYR51      -0.0009
     53  CE1       36.8610  -29.9040   84.8500 C.ar   51  TYR51       0.0417
     54  CE2       34.5890  -30.6630   85.0120 C.ar   51  TYR51       0.0417
     55  CZ        35.8120  -30.6580   84.3600 C.ar   51  TYR51       0.1957
     56  OH        36.0130  -31.3990   83.2260 O.3    51  TYR51      -0.2866
     57  N         34.3040  -30.8400   89.8850 N.am   52  GLU52      -0.1979
     58  CA        33.6550  -32.0510   90.3140 C.3    52  GLU52       0.1602
     59  C         34.5680  -33.1360   90.8590 C.2    52  GLU52       0.2287
     60  O         35.0650  -34.0280   90.1670 O.2    52  GLU52      -0.2864
     61  CB        32.6440  -32.6070   89.3270 C.3    52  GLU52       0.0415
     62  CG        32.7790  -32.6490   87.8470 C.3    52  GLU52       0.1163
     63  CD        31.7090  -32.1320   86.9320 C.2    52  GLU52       0.3649
     64  OE1       31.1960  -31.0220   86.9920 O.co2  52  GLU52      -0.2457
     65  OE2       31.3920  -32.9340   86.0140 O.co2  52  GLU52      -0.2457
     66  N         33.4570  -25.6820   97.1200 N.3    91  SER91      -0.1202
     67  CA        32.0230  -25.5600   96.8190 C.3    91  SER91       0.2020
     68  C         31.1930  -26.8370   96.9000 C.2    91  SER91       0.2619
     69  O         31.5880  -27.8390   97.4930 O.2    91  SER91      -0.2717
     70  CB        31.8690  -24.9660   95.4080 C.3    91  SER91       0.2103
     71  OG        31.4740  -23.6230   95.4300 O.3    91  SER91      -0.2182
     72  N         29.9680  -26.7470   96.3520 N.am   92  SER92      -0.1937
     73  CA        28.9330  -27.7900   96.3150 C.3    92  SER92       0.2055
     74  C         27.5640  -27.2330   95.8800 C.2    92  SER92       0.2643
     75  O         27.4200  -25.9890   95.8240 O.2    92  SER92      -0.2714
     76  CB        28.7700  -28.4850   97.6660 C.3    92  SER92       0.2130
     77  OG        29.1280  -29.8460   97.6240 O.3    92  SER92      -0.2179
     78  N         26.5810  -28.1340   95.6720 N.am   93  TYR93      -0.1973
     79  CA        25.1550  -27.7090   95.6250 C.3    93  TYR93       0.1639
     80  C         24.1470  -28.6230   96.3330 C.2    93  TYR93       0.2290
     81  O         24.3720  -29.7670   96.7480 O.2    93  TYR93      -0.2864
     82  CB        24.7050  -27.2770   94.2510 C.3    93  TYR93       0.0560
     83  CG        24.1650  -28.1120   93.1450 C.ar   93  TYR93      -0.0198
     84  CD1       23.1380  -29.0370   93.3200 C.ar   93  TYR93      -0.0009
     85  CD2       24.6450  -27.9480   91.8230 C.ar   93  TYR93      -0.0009
     86  CE1       22.6270  -29.7980   92.2730 C.ar   93  TYR93       0.0417
     87  CE2       24.1460  -28.6910   90.7560 C.ar   93  TYR93       0.0417
     88  CZ        23.1320  -29.6170   90.9910 C.ar   93  TYR93       0.1957
     89  OH        22.5970  -30.3930   89.9850 O.3    93  TYR93      -0.2866
     90  N         23.5210  -23.6960   97.2200 N.3    99  PHE99      -0.1241
     91  CA        24.8990  -24.1380   96.9750 C.3    99  PHE99       0.1605
     92  C         25.8990  -23.5750   98.0120 C.2    99  PHE99       0.2264
     93  O         26.2160  -22.3770   98.0100 O.2    99  PHE99      -0.2867
     94  CB        25.4090  -23.9430   95.5770 C.3    99  PHE99       0.0534
     95  CG        24.8070  -23.1600   94.4870 C.ar   99  PHE99      -0.0203
     96  CD1       23.8960  -22.1280   94.6970 C.ar   99  PHE99      -0.0042
     97  CD2       25.2010  -23.4340   93.1620 C.ar   99  PHE99      -0.0042
     98  CE1       23.3490  -21.4080   93.6450 C.ar   99  PHE99      -0.0003
     99  CE2       24.6800  -22.7190   92.0860 C.ar   99  PHE99      -0.0003
    100  CZ        23.7470  -21.7050   92.3440 C.ar   99  PHE99      -0.0000
    101  N         29.3990  -23.0880  100.1670 N.3   101  PHE101     -0.1241
    102  CA        30.7500  -22.5700  100.0940 C.3   101  PHE101      0.1605
    103  C         31.5250  -22.7070  101.4120 C.2   101  PHE101      0.2264
    104  O         30.9610  -22.5680  102.5090 O.2   101  PHE101     -0.2867
    105  CB        30.7080  -21.0530   99.7480 C.3   101  PHE101      0.0534
    106  CG        31.1080  -20.7190   98.3500 C.ar  101  PHE101     -0.0203
    107  CD1       32.4610  -20.6920   97.9880 C.ar  101  PHE101     -0.0042
    108  CD2       30.1320  -20.4320   97.3970 C.ar  101  PHE101     -0.0042
    109  CE1       32.8380  -20.3900   96.6790 C.ar  101  PHE101     -0.0003
    110  CE2       30.4850  -20.1320   96.0920 C.ar  101  PHE101     -0.0003
    111  CZ        31.8370  -20.1070   95.7420 C.ar  101  PHE101     -0.0000
@<TRIPOS>BOND
     1    56    55    1
     2    55    53   ar
     3    55    54   ar
     4    53    51   ar
     5    54    52   ar
     6    51    50   ar
     7    65    63   ar
     8    52    50   ar
     9    50    49    1
    10    63    64   ar
    11    63    62    1
    12    41    40    2
    13    62    61    1
    14    49    46    1
    15    42    43    1
    16    42    44    1
    17    42    39    1
    18    12    11    1
    19    38    39    1
    20    40    39    1
    21    34    33    2
    22    48    47    2
    23    46    45    1
    24    46    47    1
    25    61    58    1
    26    47    57   am
    27    10    11   ar
    28    10     8   ar
    29    11     9   ar
    30    57    58    1
    31    89    88    1
    32    33    32    1
    33    60    59    2
    34    58    59    1
    35     8     6   ar
    36     9     7   ar
    37    87    88   ar
    38    87    85   ar
    39    31    32    1
    40    31    37    1
    41    88    86   ar
    42    32    35    1
    43    27    25   ar
    44    27    29   ar
    45     6     7   ar
    46     6     5    1
    47    30    29    1
    48    85    83   ar
    49    37    36    1
    50    25    24   ar
    51    17    18    1
    52    17    14    1
    53    35    36    1
    54    99   100   ar
    55    99    97   ar
    56    86    84   ar
    57    29    28   ar
    58   100    98   ar
    59     5     2    1
    60    14    13    1
    61    14    15    1
    62    83    84   ar
    63    83    82    1
    64    97    95   ar
    65     2     1    1
    66     2     3    1
    67    24    23    1
    68    24    26   ar
    69    28    26   ar
    70    98    96   ar
    71    20    23    1
    72    20    19    1
    73    20    21    1
    74    15    16    2
    75     3     4    2
    76    82    79    1
    77    21    22    2
    78    95    96   ar
    79    95    94    1
    80    70    71    1
    81    70    67    1
    82    94    91    1
    83    79    78    1
    84    79    80    1
    85    78    74   am
    86   111   110   ar
    87   111   109   ar
    88    75    74    2
    89    74    73    1
    90   110   108   ar
    91    73    72    1
    92    73    76    1
    93    80    81    2
    94    72    68   am
    95   109   107   ar
    96    67    68    1
    97    67    66    1
    98    68    69    2
    99    91    90    1
   100    91    92    1
   101   108   106   ar
   102    77    76    1
   103   107   106   ar
   104    93    92    2
   105   106   105    1
   106   105   102    1
   107   102   101    1
   108   102   103    1
   109   103   104    2
