@<TRIPOS>MOLECULE
tmp/1mciA00.pdb
 99 96 0 0 0
SMALL
GASTEIGER

@<TRIPOS>ATOM
      1  N         23.5270  -19.4920   81.6180 N.3    34  TYR34      -0.1241
      2  CA        24.2670  -19.9300   82.7960 C.3    34  TYR34       0.1605
      3  C         25.0360  -18.8380   83.5120 C.2    34  TYR34       0.2264
      4  O         26.1260  -19.0910   84.0830 O.2    34  TYR34      -0.2867
      5  CB        25.1740  -21.1600   82.4710 C.3    34  TYR34       0.0534
      6  CG        24.4290  -22.4700   82.6860 C.ar   34  TYR34      -0.0201
      7  CD1       23.9780  -22.8230   83.9580 C.ar   34  TYR34      -0.0009
      8  CD2       24.1400  -23.3170   81.6210 C.ar   34  TYR34      -0.0009
      9  CE1       23.2600  -23.9950   84.1700 C.ar   34  TYR34       0.0417
     10  CE2       23.4240  -24.4940   81.8130 C.ar   34  TYR34       0.0417
     11  CZ        22.9810  -24.8290   83.0920 C.ar   34  TYR34       0.1957
     12  OH        22.2530  -25.9790   83.2460 O.3    34  TYR34      -0.2866
     13  N         25.7630  -16.6080   86.5850 N.3    36  SER36      -0.1217
     14  CA        25.6360  -16.6260   88.0590 C.3    36  SER36       0.1889
     15  C         26.2540  -15.3660   88.6650 C.2    36  SER36       0.2288
     16  O         27.1710  -14.7620   88.0830 O.2    36  SER36      -0.2866
     17  CB        26.2600  -17.8920   88.6320 C.3    36  SER36       0.2089
     18  OG        25.4430  -19.0350   88.4530 O.3    36  SER36      -0.2183
     19  N         27.6520  -13.7020   92.5340 N.3    38  TYR38      -0.1241
     20  CA        28.1600  -14.0270   93.8700 C.3    38  TYR38       0.1605
     21  C         28.3110  -12.7590   94.7270 C.2    38  TYR38       0.2264
     22  O         28.4600  -11.6410   94.1830 O.2    38  TYR38      -0.2867
     23  CB        29.5120  -14.7360   93.7480 C.3    38  TYR38       0.0534
     24  CG        29.5340  -15.9960   92.9280 C.ar   38  TYR38      -0.0201
     25  CD1       29.6900  -15.9810   91.5450 C.ar   38  TYR38      -0.0009
     26  CD2       29.4260  -17.2390   93.5630 C.ar   38  TYR38      -0.0009
     27  CE1       29.7290  -17.1590   90.8030 C.ar   38  TYR38       0.0417
     28  CE2       29.4740  -18.4260   92.8330 C.ar   38  TYR38       0.0417
     29  CZ        29.6200  -18.3770   91.4540 C.ar   38  TYR38       0.1957
     30  OH        29.6690  -19.5360   90.7320 O.3    38  TYR38      -0.2866
     31  N         21.8230  -18.0000   89.9350 N.3    51  TYR51      -0.1227
     32  CA        22.4210  -19.1290   89.2250 C.3    51  TYR51       0.1736
     33  C         22.1750  -19.2310   87.7370 C.2    51  TYR51       0.2595
     34  O         23.1840  -19.5430   87.0140 O.2    51  TYR51      -0.2718
     35  CB        22.1970  -20.4600   89.9160 C.3    51  TYR51       0.0548
     36  CG        20.8590  -21.0590   90.1880 C.ar   51  TYR51      -0.0200
     37  CD1       19.8210  -20.3660   90.8120 C.ar   51  TYR51      -0.0009
     38  CD2       20.6380  -22.4230   89.9070 C.ar   51  TYR51      -0.0009
     39  CE1       18.6020  -20.9770   91.0950 C.ar   51  TYR51       0.0417
     40  CE2       19.4240  -23.0410   90.1780 C.ar   51  TYR51       0.0417
     41  CZ        18.4130  -22.3170   90.7750 C.ar   51  TYR51       0.1957
     42  OH        17.2300  -22.9520   91.0500 O.3    51  TYR51      -0.2866
     43  N         20.9610  -19.1690   87.2480 N.am   52  GLU52      -0.1979
     44  CA        20.7670  -18.9330   85.7950 C.3    52  GLU52       0.1602
     45  C         20.0040  -17.6050   85.6920 C.2    52  GLU52       0.2287
     46  O         18.7800  -17.5780   85.4970 O.2    52  GLU52      -0.2864
     47  CB        20.0570  -19.9880   85.0230 C.3    52  GLU52       0.0415
     48  CG        20.4270  -21.4700   85.0980 C.3    52  GLU52       0.1163
     49  CD        19.5240  -22.2150   86.0620 C.2    52  GLU52       0.3649
     50  OE1       19.9730  -22.1500   87.2170 O.co2  52  GLU52      -0.2457
     51  OE2       18.4710  -22.7400   85.7500 O.co2  52  GLU52      -0.2457
     52  N         29.5420  -14.9090   86.7300 N.3    91  SER91      -0.1217
     53  CA        30.0780  -16.0420   85.9790 C.3    91  SER91       0.1889
     54  C         29.1480  -16.5040   84.8500 C.2    91  SER91       0.2288
     55  O         27.9410  -16.2510   84.8260 O.2    91  SER91      -0.2866
     56  CB        30.3940  -17.2450   86.8640 C.3    91  SER91       0.2089
     57  OG        31.7080  -17.2630   87.3620 O.3    91  SER91      -0.2183
     58  N         29.5290  -19.9190   81.6210 N.3    93  TYR93      -0.1241
     59  CA        30.2310  -21.1160   81.1140 C.3    93  TYR93       0.1605
     60  C         30.8710  -20.8400   79.7620 C.2    93  TYR93       0.2264
     61  O         30.4570  -20.0210   78.9420 O.2    93  TYR93      -0.2867
     62  CB        29.2270  -22.2440   81.1730 C.3    93  TYR93       0.0534
     63  CG        29.4900  -23.6030   80.6380 C.ar   93  TYR93      -0.0201
     64  CD1       30.2480  -24.5500   81.3240 C.ar   93  TYR93      -0.0009
     65  CD2       28.9090  -23.9970   79.4220 C.ar   93  TYR93      -0.0009
     66  CE1       30.4480  -25.8290   80.8180 C.ar   93  TYR93       0.0417
     67  CE2       29.1000  -25.2720   78.8960 C.ar   93  TYR93       0.0417
     68  CZ        29.8700  -26.1860   79.6060 C.ar   93  TYR93       0.1957
     69  OH        30.0670  -27.4500   79.1230 O.3    93  TYR93      -0.2866
     70  N         33.8690  -27.9540   80.2590 N.3    97  ASP97      -0.1239
     71  CA        33.4640  -27.8820   81.6810 C.3    97  ASP97       0.1674
     72  C         34.3040  -26.7960   82.3720 C.2    97  ASP97       0.2266
     73  O         35.1730  -27.1380   83.1960 O.2    97  ASP97      -0.2867
     74  CB        33.6100  -29.2340   82.3560 C.3    97  ASP97       0.1410
     75  CG        32.9150  -30.3810   81.6730 C.2    97  ASP97       0.3668
     76  OD1       31.6960  -30.3550   81.4470 O.co2  97  ASP97      -0.2456
     77  OD2       33.6400  -31.3610   81.3800 O.co2  97  ASP97      -0.2456
     78  N         34.3320  -22.3370   83.4820 N.3    99  PHE99      -0.1241
     79  CA        33.4970  -21.1920   83.8870 C.3    99  PHE99       0.1605
     80  C         34.4170  -19.9870   84.0710 C.2    99  PHE99       0.2264
     81  O         35.4910  -20.1630   84.6900 O.2    99  PHE99      -0.2867
     82  CB        32.7590  -21.5180   85.2040 C.3    99  PHE99       0.0534
     83  CG        31.9290  -22.7610   85.2410 C.ar   99  PHE99      -0.0203
     84  CD1       32.4730  -24.0140   84.9670 C.ar   99  PHE99      -0.0042
     85  CD2       30.5680  -22.6750   85.5660 C.ar   99  PHE99      -0.0042
     86  CE1       31.6800  -25.1610   84.9860 C.ar   99  PHE99      -0.0003
     87  CE2       29.7600  -23.8050   85.5980 C.ar   99  PHE99      -0.0003
     88  CZ        30.3160  -25.0510   85.3100 C.ar   99  PHE99      -0.0000
     89  N         34.5980  -15.8360   85.3930 N.3   101  PHE101     -0.1241
     90  CA        34.1860  -14.7720   86.2580 C.3   101  PHE101      0.1605
     91  C         34.3120  -13.3770   85.6500 C.2   101  PHE101      0.2264
     92  O         35.1220  -13.0910   84.7630 O.2   101  PHE101     -0.2867
     93  CB        35.0520  -14.8020   87.5810 C.3   101  PHE101      0.0534
     94  CG        34.5600  -15.8790   88.5050 C.ar  101  PHE101     -0.0203
     95  CD1       34.7550  -17.2210   88.1690 C.ar  101  PHE101     -0.0042
     96  CD2       33.8510  -15.5520   89.6560 C.ar  101  PHE101     -0.0042
     97  CE1       34.2590  -18.2330   88.9790 C.ar  101  PHE101     -0.0003
     98  CE2       33.3470  -16.5610   90.4780 C.ar  101  PHE101     -0.0003
     99  CZ        33.5560  -17.9030   90.1240 C.ar  101  PHE101     -0.0000
@<TRIPOS>BOND
     1    67    65   ar
     2    67    68   ar
     3    61    60    2
     4    69    68    1
     5    65    63   ar
     6    68    66   ar
     7    60    59    1
     8    70    71    1
     9    63    62    1
    10    63    64   ar
    11    66    64   ar
    12    59    62    1
    13    59    58    1
    14    77    75   ar
    15    76    75   ar
    16     1     2    1
    17     8    10   ar
    18     8     6   ar
    19    75    74    1
    20    71    74    1
    21    71    72    1
    22    10    11   ar
    23    72    73    2
    24     5     6    1
    25     5     2    1
    26     6     7   ar
    27     2     3    1
    28    11    12    1
    29    11     9   ar
    30    78    79    1
    31     3     4    2
    32    79    80    1
    33    79    82    1
    34     7     9   ar
    35    80    81    2
    36    92    91    2
    37    55    54    2
    38    54    53    1
    39    84    86   ar
    40    84    83   ar
    41    86    88   ar
    42    47    48    1
    43    47    44    1
    44    48    49    1
    45    82    83    1
    46    83    85   ar
    47    88    87   ar
    48    89    90    1
    49    46    45    2
    50    85    87   ar
    51    91    90    1
    52    45    44    1
    53    51    49   ar
    54    44    43    1
    55    53    52    1
    56    53    56    1
    57    49    50   ar
    58    90    93    1
    59    13    14    1
    60    56    57    1
    61    34    33    2
    62    43    33   am
    63    93    94    1
    64    33    32    1
    65    14    17    1
    66    14    15    1
    67    16    15    2
    68    95    94   ar
    69    95    97   ar
    70    18    17    1
    71    94    96   ar
    72    97    99   ar
    73    32    35    1
    74    32    31    1
    75    96    98   ar
    76    38    40   ar
    77    38    36   ar
    78    35    36    1
    79    99    98   ar
    80    40    41   ar
    81    36    37   ar
    82    30    29    1
    83    41    42    1
    84    41    39   ar
    85    27    29   ar
    86    27    25   ar
    87    37    39   ar
    88    29    28   ar
    89    25    24   ar
    90    19    20    1
    91    28    26   ar
    92    24    26   ar
    93    24    23    1
    94    23    20    1
    95    20    21    1
    96    22    21    2
