@<TRIPOS>MOLECULE
tmp/1mcrB00.pdb
 93 90 0 0 0
SMALL
GASTEIGER

@<TRIPOS>ATOM
      1  N         26.9380  -36.8520   96.7940 N.3    32  TYR32      -0.1241
      2  CA        27.4330  -35.8270   95.8460 C.3    32  TYR32       0.1605
      3  C         28.9170  -36.1340   95.6160 C.2    32  TYR32       0.2264
      4  O         29.7570  -35.7340   96.4540 O.2    32  TYR32      -0.2867
      5  CB        27.2410  -34.4570   96.4770 C.3    32  TYR32       0.0534
      6  CG        26.0120  -33.7120   96.0400 C.ar   32  TYR32      -0.0201
      7  CD1       25.9570  -33.1410   94.7610 C.ar   32  TYR32      -0.0009
      8  CD2       24.9130  -33.5600   96.8780 C.ar   32  TYR32      -0.0009
      9  CE1       24.8450  -32.4330   94.3310 C.ar   32  TYR32       0.0417
     10  CE2       23.7900  -32.8500   96.4650 C.ar   32  TYR32       0.0417
     11  CZ        23.7650  -32.2820   95.1860 C.ar   32  TYR32       0.1957
     12  OH        22.6820  -31.5560   94.7590 O.3    32  TYR32      -0.2866
     13  N         31.2760  -34.9620   94.0780 N.3    34  TYR34      -0.1241
     14  CA        31.4600  -33.6220   93.5100 C.3    34  TYR34       0.1605
     15  C         31.8100  -32.6890   94.6680 C.2    34  TYR34       0.2264
     16  O         31.5620  -32.9720   95.8540 O.2    34  TYR34      -0.2867
     17  CB        30.1480  -33.2040   92.8160 C.3    34  TYR34       0.0534
     18  CG        30.1310  -31.7980   92.2900 C.ar   34  TYR34      -0.0201
     19  CD1       29.9410  -30.7100   93.1410 C.ar   34  TYR34      -0.0009
     20  CD2       30.3090  -31.5470   90.9350 C.ar   34  TYR34      -0.0009
     21  CE1       29.9500  -29.4050   92.6580 C.ar   34  TYR34       0.0417
     22  CE2       30.3070  -30.2470   90.4290 C.ar   34  TYR34       0.0417
     23  CZ        30.1270  -29.1780   91.3070 C.ar   34  TYR34       0.1957
     24  OH        30.1290  -27.8850   90.8490 O.3    34  TYR34      -0.2866
     25  N         33.9840  -28.4890   94.2900 N.3    36  SER36      -0.1217
     26  CA        34.7340  -27.7060   93.2400 C.3    36  SER36       0.1889
     27  C         35.6540  -26.7590   93.9870 C.2    36  SER36       0.2288
     28  O         35.2050  -26.2900   95.0690 O.2    36  SER36      -0.2866
     29  CB        33.8080  -27.0280   92.2790 C.3    36  SER36       0.2089
     30  OG        32.6850  -26.4090   92.8760 O.3    36  SER36      -0.2183
     31  N         38.4440  -23.2820   94.3460 N.3    38  TYR38      -0.1241
     32  CA        38.5580  -21.8940   93.8680 C.3    38  TYR38       0.1605
     33  C         39.7270  -21.0700   94.4330 C.2    38  TYR38       0.2264
     34  O         39.8030  -20.7660   95.6330 O.2    38  TYR38      -0.2867
     35  CB        37.2880  -21.1070   94.1210 C.3    38  TYR38       0.0534
     36  CG        35.9730  -21.4950   93.5370 C.ar   38  TYR38      -0.0201
     37  CD1       35.2760  -22.6100   93.9910 C.ar   38  TYR38      -0.0009
     38  CD2       35.3420  -20.6840   92.5780 C.ar   38  TYR38      -0.0009
     39  CE1       34.0210  -22.9470   93.4950 C.ar   38  TYR38       0.0417
     40  CE2       34.0800  -21.0020   92.0780 C.ar   38  TYR38       0.0417
     41  CZ        33.4310  -22.1400   92.5390 C.ar   38  TYR38       0.1957
     42  OH        32.2000  -22.4960   92.0690 O.3    38  TYR38      -0.2866
     43  N         38.1200  -20.9470   89.1890 N.3    48  VAL48      -0.1245
     44  CA        37.8040  -22.3210   89.5440 C.3    48  VAL48       0.1561
     45  C         39.0040  -23.2180   89.1670 C.2    48  VAL48       0.2260
     46  O         39.5880  -23.0500   88.1000 O.2    48  VAL48      -0.2867
     47  CB        36.5470  -22.9000   88.8830 C.3    48  VAL48       0.0252
     48  CG1       36.4670  -24.4240   89.0610 C.3    48  VAL48       0.0019
     49  CG2       35.2600  -22.2800   89.3660 C.3    48  VAL48       0.0019
     50  N         34.3250  -30.8980   89.2490 N.3    52  GLU52      -0.1301
     51  CA        33.7530  -32.0970   89.9400 C.3    52  GLU52       0.1252
     52  C         34.7520  -32.4620   91.0000 C.3    52  GLU52       0.2009
     53  O         35.4520  -31.4760   91.4270 O.3    52  GLU52      -0.2188
     54  CB        33.3310  -33.1800   88.9940 C.3    52  GLU52       0.0335
     55  CG        31.8330  -33.2400   88.6220 C.3    52  GLU52       0.1156
     56  CD        31.3980  -32.8820   87.2500 C.2    52  GLU52       0.3649
     57  OE1       31.3640  -31.7650   86.7520 O.co2  52  GLU52      -0.2457
     58  OE2       31.0090  -33.8750   86.5750 O.co2  52  GLU52      -0.2457
     59  N         32.8550  -25.6690   96.6420 N.3    91  SER91      -0.1202
     60  CA        31.3790  -25.6770   96.5120 C.3    91  SER91       0.2020
     61  C         30.8030  -27.0890   96.3820 C.2    91  SER91       0.2619
     62  O         31.5800  -28.0000   96.0230 O.2    91  SER91      -0.2717
     63  CB        30.9180  -24.8450   95.3280 C.3    91  SER91       0.2103
     64  OG        31.6400  -23.6540   95.1660 O.3    91  SER91      -0.2182
     65  N         29.4860  -27.2290   96.6220 N.am   92  SER92      -0.1937
     66  CA        28.8170  -28.5520   96.4210 C.3    92  SER92       0.2055
     67  C         27.5590  -28.6030   95.5880 C.2    92  SER92       0.2643
     68  O         27.6650  -28.5420   94.3280 O.2    92  SER92      -0.2714
     69  CB        28.6200  -29.2140   97.7890 C.3    92  SER92       0.2130
     70  OG        29.8900  -29.6510   98.2590 O.3    92  SER92      -0.2179
     71  N         26.3640  -28.8620   96.1530 N.am   93  TYR93      -0.1973
     72  CA        25.0850  -28.7620   95.4450 C.3    93  TYR93       0.1639
     73  C         23.8190  -29.2830   96.1160 C.2    93  TYR93       0.2290
     74  O         23.8210  -30.0680   97.0710 O.2    93  TYR93      -0.2864
     75  CB        25.1870  -29.3130   94.0020 C.3    93  TYR93       0.0560
     76  CG        24.3440  -28.4870   93.0410 C.ar   93  TYR93      -0.0198
     77  CD1       24.3430  -27.0930   93.1490 C.ar   93  TYR93      -0.0009
     78  CD2       23.5260  -29.0870   92.0870 C.ar   93  TYR93      -0.0009
     79  CE1       23.5600  -26.3090   92.3180 C.ar   93  TYR93       0.0417
     80  CE2       22.7540  -28.3100   91.2320 C.ar   93  TYR93       0.0417
     81  CZ        22.7640  -26.9210   91.3570 C.ar   93  TYR93       0.1957
     82  OH        22.0030  -26.1270   90.5440 O.3    93  TYR93      -0.2866
     83  N         23.7340  -23.8350   96.4690 N.3    99  PHE99      -0.1241
     84  CA        25.0060  -24.4240   96.8330 C.3    99  PHE99       0.1605
     85  C         25.8520  -23.6220   97.8220 C.2    99  PHE99       0.2264
     86  O         25.8180  -22.4060   97.9730 O.2    99  PHE99      -0.2867
     87  CB        25.8170  -24.6480   95.5560 C.3    99  PHE99       0.0534
     88  CG        25.9240  -23.4650   94.6440 C.ar   99  PHE99      -0.0203
     89  CD1       26.9300  -22.5270   94.8240 C.ar   99  PHE99      -0.0042
     90  CD2       25.0540  -23.3440   93.5650 C.ar   99  PHE99      -0.0042
     91  CE1       27.0850  -21.4660   93.9410 C.ar   99  PHE99      -0.0003
     92  CE2       25.1870  -22.2860   92.6600 C.ar   99  PHE99      -0.0003
     93  CZ        26.2200  -21.3520   92.8550 C.ar   99  PHE99      -0.0000
@<TRIPOS>BOND
     1    58    56   ar
     2    57    56   ar
     3    56    55    1
     4    46    45    2
     5    55    54    1
     6    47    48    1
     7    47    49    1
     8    47    44    1
     9    54    51    1
    10    45    44    1
    11    43    44    1
    12    50    51    1
    13    51    52    1
    14    22    20   ar
    15    22    23   ar
    16    82    81    1
    17    24    23    1
    18    20    18   ar
    19    52    53    1
    20    80    81   ar
    21    80    78   ar
    22    23    21   ar
    23    81    79   ar
    24    42    41    1
    25    40    41   ar
    26    40    38   ar
    27    78    76   ar
    28    29    30    1
    29    29    26    1
    30    18    17    1
    31    18    19   ar
    32    79    77   ar
    33    41    39   ar
    34    38    36   ar
    35    21    19   ar
    36    92    93   ar
    37    92    90   ar
    38    17    14    1
    39    93    91   ar
    40    76    77   ar
    41    76    75    1
    42    26    27    1
    43    26    25    1
    44    39    37   ar
    45    14    13    1
    46    14    15    1
    47    36    37   ar
    48    36    35    1
    49    90    88   ar
    50    32    35    1
    51    32    31    1
    52    32    33    1
    53    91    89   ar
    54    27    28    2
    55    75    72    1
    56    68    67    2
    57     9     7   ar
    58     9    11   ar
    59    33    34    2
    60    88    89   ar
    61    88    87    1
    62    15    16    2
    63    12    11    1
    64     7     6   ar
    65    64    63    1
    66    11    10   ar
    67    63    60    1
    68    72    73    1
    69    72    71    1
    70    87    84    1
    71    67    71   am
    72    67    66    1
    73     3     2    1
    74     3     4    2
    75     2     5    1
    76     2     1    1
    77    62    61    2
    78     6     5    1
    79     6     8   ar
    80    73    74    2
    81    61    60    1
    82    61    65   am
    83    66    65    1
    84    66    69    1
    85    10     8   ar
    86    83    84    1
    87    60    59    1
    88    84    85    1
    89    69    70    1
    90    85    86    2
