@<TRIPOS>MOLECULE
tmp/1md2A00.pdb
 90 87 0 0 0
SMALL
GASTEIGER

@<TRIPOS>ATOM
      1  N        -18.7270   16.7260    3.7920 N.3    13  ASN13      -0.1240
      2  CA       -18.0510   16.0450    4.8560 C.3    13  ASN13       0.1653
      3  C        -17.9950   16.8880    6.1090 C.2    13  ASN13       0.2266
      4  O        -16.9960   16.8100    6.7890 O.2    13  ASN13      -0.2867
      5  CB       -16.5920   15.6590    4.4850 C.3    13  ASN13       0.1155
      6  CG       -16.6040   14.7440    3.2780 C.2    13  ASN13       0.2627
      7  OD1      -17.1230   13.6320    3.3260 O.2    13  ASN13      -0.2716
      8  ND2      -15.9560   15.2290    2.2540 N.am   13  ASN13      -0.0877
      9  N         -6.2940   21.9630   11.6160 N.3    50  GLU50      -0.1245
     10  CA        -5.3030   21.2310   10.8360 C.3    50  GLU50       0.1567
     11  C         -4.0830   22.1030   10.5260 C.2    50  GLU50       0.2260
     12  O         -4.1300   23.3410   10.3860 O.2    50  GLU50      -0.2867
     13  CB        -5.9650   20.9500    9.4950 C.3    50  GLU50       0.0388
     14  CG        -7.0480   19.8740    9.5200 C.3    50  GLU50       0.1160
     15  CD        -7.5090   19.4970    8.1370 C.2    50  GLU50       0.3649
     16  OE1       -8.4410   20.1280    7.6070 O.co2  50  GLU50      -0.2457
     17  OE2       -6.9030   18.5650    7.5300 O.co2  50  GLU50      -0.2457
     18  N         -2.0760   21.5980    1.3430 N.3    54  SER54      -0.1202
     19  CA        -2.4870   21.8980   -0.0190 C.3    54  SER54       0.2020
     20  C         -3.9720   21.8200   -0.2140 C.2    54  SER54       0.2619
     21  O         -4.4780   22.2910   -1.2580 O.2    54  SER54      -0.2717
     22  CB        -1.7270   21.0050   -1.0260 C.3    54  SER54       0.2103
     23  OG        -2.1550   19.6990   -0.6660 O.3    54  SER54      -0.2182
     24  N         -4.7230   21.3180    0.7780 N.am   55  GLN55      -0.1965
     25  CA        -6.1740   21.3800    0.7100 C.3    55  GLN55       0.1733
     26  C         -6.6620   22.7970    1.0200 C.2    55  GLN55       0.2616
     27  O         -7.8570   23.0410    0.7860 O.2    55  GLN55      -0.2715
     28  CB        -6.7880   20.4360    1.7500 C.3    55  GLN55       0.0408
     29  CG        -6.7340   20.7190    3.2000 C.3    55  GLN55       0.0908
     30  CD        -5.5300   20.2690    3.9560 C.2    55  GLN55       0.2608
     31  OE1       -5.5170   19.8850    5.1240 O.2    55  GLN55      -0.2717
     32  NE2       -4.3790   20.2920    3.3130 N.am   55  GLN55      -0.0878
     33  N         -5.8750   23.7120    1.5420 N.am   56  HIS56      -0.1959
     34  CA        -6.3240   25.0460    1.9110 C.3    56  HIS56       0.1787
     35  C         -6.0090   26.0560    0.8300 C.2    56  HIS56       0.2620
     36  O         -4.9440   25.9470    0.2220 O.2    56  HIS56      -0.2715
     37  CB        -5.6150   25.4730    3.1980 C.3    56  HIS56       0.0785
     38  CG        -5.9790   24.6220    4.3680 C.ar   56  HIS56       0.0821
     39  ND1       -5.0250   23.8450    5.0240 N.ar   56  HIS56      -0.2267
     40  CD2       -7.1320   24.3930    5.0160 C.ar   56  HIS56       0.1154
     41  CE1       -5.5970   23.2280    6.0480 C.ar   56  HIS56       0.1986
     42  NE2       -6.9140   23.5490    6.0380 N.ar   56  HIS56      -0.2212
     43  N         -6.8950   26.9590    0.5410 N.am   57  ILE57      -0.1977
     44  CA        -6.6730   28.0430   -0.3830 C.3    57  ILE57       0.1596
     45  C         -6.0180   29.1740    0.3990 C.2    57  ILE57       0.2287
     46  O         -6.0650   29.1860    1.6160 O.2    57  ILE57      -0.2864
     47  CB        -7.9250   28.4780   -1.1450 C.3    57  ILE57       0.0276
     48  CG1       -9.0370   28.9010   -0.1970 C.3    57  ILE57       0.0022
     49  CG2       -8.3590   27.3000   -2.0280 C.3    57  ILE57       0.0022
     50  CD1      -10.2590   29.4060   -0.8980 C.3    57  ILE57       0.0001
     51  N         -7.5960   31.0030    3.2850 N.3    60  GLN60      -0.1245
     52  CA        -7.7790   30.2990    4.5050 C.3    60  GLN60       0.1566
     53  C         -6.5800   30.4000    5.4610 C.2    60  GLN60       0.2260
     54  O         -6.7890   30.1860    6.6640 O.2    60  GLN60      -0.2867
     55  CB        -8.1010   28.8220    4.3220 C.3    60  GLN60       0.0367
     56  CG        -9.3770   28.5480    3.5910 C.3    60  GLN60       0.0905
     57  CD        -9.6190   27.0590    3.3800 C.2    60  GLN60       0.2608
     58  OE1       -9.1940   26.5180    2.3370 O.2    60  GLN60      -0.2717
     59  NE2      -10.2700   26.4510    4.3660 N.am   60  GLN60      -0.0878
     60  N        -14.9900   19.1830    9.8030 N.3    87  TRP87      -0.1241
     61  CA       -14.9110   18.1270    8.7560 C.3    87  TRP87       0.1605
     62  C        -14.7180   16.8140    9.4860 C.2    87  TRP87       0.2264
     63  O        -13.8240   16.6760   10.3110 O.2    87  TRP87      -0.2867
     64  CB       -13.7220   18.3890    7.8380 C.3    87  TRP87       0.0550
     65  CG       -13.9870   19.5820    6.9490 C.ar   87  TRP87       0.0003
     66  CD1      -14.7080   19.5650    5.8160 C.ar   87  TRP87       0.0946
     67  CD2      -13.4740   20.9210    7.0760 C.ar   87  TRP87       0.0152
     68  NE1      -14.7200   20.7990    5.2110 N.ar   87  TRP87      -0.2442
     69  CE2      -13.9260   21.6320    5.9720 C.ar   87  TRP87       0.0810
     70  CE3      -12.6050   21.5430    7.9680 C.ar   87  TRP87       0.0012
     71  CZ2      -13.6180   22.9720    5.7580 C.ar   87  TRP87       0.0191
     72  CZ3      -12.3000   22.8870    7.7830 C.ar   87  TRP87       0.0001
     73  CH2      -12.8350   23.5790    6.6850 C.ar   87  TRP87       0.0015
     74  N        -14.0720   13.8970    7.9290 N.3    89  ASN89      -0.1225
     75  CA       -13.2010   13.0330    7.1250 C.3    89  ASN89       0.1785
     76  C        -11.7230   13.1810    7.5770 C.2    89  ASN89       0.2597
     77  O        -10.8220   12.7830    6.8680 O.2    89  ASN89      -0.2718
     78  CB       -13.3030   13.2900    5.6440 C.3    89  ASN89       0.1169
     79  CG       -12.8500   14.6390    5.1690 C.2    89  ASN89       0.2627
     80  OD1      -12.7560   15.5820    5.9700 O.2    89  ASN89      -0.2716
     81  ND2      -12.6210   14.7700    3.8960 N.am   89  ASN89      -0.0877
     82  N        -11.5510   13.6970    8.7820 N.am   90  LYS90      -0.1980
     83  CA       -10.2550   13.8120    9.4460 C.3    90  LYS90       0.1596
     84  C        -10.4620   13.3380   10.8560 C.2    90  LYS90       0.2287
     85  O        -11.5410   13.4390   11.4760 O.2    90  LYS90      -0.2864
     86  CB        -9.7910   15.2850    9.5090 C.3    90  LYS90       0.0298
     87  CG        -9.5640   15.8970    8.1550 C.3    90  LYS90       0.0038
     88  CD        -8.3450   15.2580    7.4670 C.3    90  LYS90       0.0206
     89  CE        -8.2940   15.5250    6.0040 C.3    90  LYS90       0.1093
     90  NZ        -8.2980   17.0000    5.6470 N.3    90  LYS90      -0.1314
@<TRIPOS>BOND
     1    49    47    1
     2    21    20    2
     3    47    44    1
     4    47    48    1
     5    22    23    1
     6    22    19    1
     7    50    48    1
     8    44    45    1
     9    44    43    1
    10    20    19    1
    11    20    24   am
    12    19    18    1
    13    36    35    2
    14    45    46    2
    15    43    35   am
    16    25    24    1
    17    25    26    1
    18    25    28    1
    19    27    26    2
    20    35    34    1
    21    26    33   am
    22    33    34    1
    23    28    29    1
    24    34    37    1
    25     8     6   am
    26    58    57    2
    27    37    38    1
    28    29    30    1
    29     6     7    2
    30     6     5    1
    31    51    52    1
    32    32    30   am
    33    57    56    1
    34    57    59   am
    35    56    55    1
    36     1     2    1
    37    81    79   am
    38    30    31    2
    39    55    52    1
    40    38    40   ar
    41    38    39   ar
    42     5     2    1
    43    52    53    1
    44     2     3    1
    45    40    42   ar
    46    39    41   ar
    47    79    78    1
    48    79    80    2
    49    68    66   ar
    50    68    69   ar
    51    53    54    2
    52    78    75    1
    53    90    89    1
    54    71    69   ar
    55    71    73   ar
    56    66    65   ar
    57    69    67   ar
    58    89    88    1
    59    42    41   ar
    60     3     4    2
    61    73    72   ar
    62    77    76    2
    63    65    67   ar
    64    65    64    1
    65    67    70   ar
    66    75    76    1
    67    75    74    1
    68    88    87    1
    69    17    15   ar
    70    76    82   am
    71    16    15   ar
    72    72    70   ar
    73    64    61    1
    74    15    14    1
    75    87    86    1
    76    61    62    1
    77    61    60    1
    78    82    83    1
    79    83    86    1
    80    83    84    1
    81    62    63    2
    82    13    14    1
    83    13    10    1
    84    12    11    2
    85    11    10    1
    86    10     9    1
    87    84    85    2
