@<TRIPOS>MOLECULE
tmp/1md4A01.pdb
 148 144 0 0 0
SMALL
GASTEIGER

@<TRIPOS>ATOM
      1  N         15.2310    2.6620   34.0290 N.3     6  TYR6       -0.1227
      2  CA        14.2880    2.5060   32.9360 C.3     6  TYR6        0.1736
      3  C         13.1310    1.6030   33.3200 C.2     6  TYR6        0.2595
      4  O         13.1560    0.9480   34.3580 O.2     6  TYR6       -0.2718
      5  CB        15.0300    1.9020   31.7450 C.3     6  TYR6        0.0548
      6  CG        14.3060    1.9550   30.4210 C.ar    6  TYR6       -0.0200
      7  CD1       13.7940    3.1550   29.9320 C.ar    6  TYR6       -0.0009
      8  CD2       14.2250    0.8240   29.6080 C.ar    6  TYR6       -0.0009
      9  CE1       13.2250    3.2320   28.6590 C.ar    6  TYR6        0.0417
     10  CE2       13.6640    0.8880   28.3330 C.ar    6  TYR6        0.0417
     11  CZ        13.1680    2.0990   27.8650 C.ar    6  TYR6        0.1957
     12  OH        12.6350    2.1830   26.6030 O.3     6  TYR6       -0.2866
     13  N         12.1150    1.5820   32.4690 N.am    7  PHE7       -0.1976
     14  CA        10.9590    0.7320   32.6860 C.3     7  PHE7        0.1639
     15  C         11.4070   -0.7030   32.4060 C.2     7  PHE7        0.2290
     16  O         12.4780   -0.9210   31.8330 O.2     7  PHE7       -0.2864
     17  CB         9.8410    1.1480   31.7330 C.3     7  PHE7        0.0560
     18  CG         9.4460    2.5880   31.8740 C.ar    7  PHE7       -0.0200
     19  CD1        8.8150    3.0340   33.0300 C.ar    7  PHE7       -0.0042
     20  CD2        9.7440    3.5060   30.8750 C.ar    7  PHE7       -0.0042
     21  CE1        8.4890    4.3770   33.1920 C.ar    7  PHE7       -0.0003
     22  CE2        9.4220    4.8560   31.0270 C.ar    7  PHE7       -0.0003
     23  CZ         8.7940    5.2940   32.1880 C.ar    7  PHE7       -0.0000
     24  N         11.4510   -2.9790   30.2060 N.3     9  VAL9       -0.1245
     25  CA        11.3390   -3.3200   28.7850 C.3     9  VAL9        0.1561
     26  C         12.7020   -3.1360   28.1180 C.2     9  VAL9        0.2260
     27  O         13.6020   -2.5130   28.6890 O.2     9  VAL9       -0.2867
     28  CB        10.3270   -2.4030   28.0500 C.3     9  VAL9        0.0252
     29  CG1        8.9990   -2.3690   28.7970 C.3     9  VAL9        0.0019
     30  CG2       10.8960   -1.0100   27.9130 C.3     9  VAL9        0.0019
     31  N         13.1600   -1.8420   24.7460 N.3    11  GLY11      -0.1210
     32  CA        13.0200   -0.5330   24.1330 C.3    11  GLY11       0.1956
     33  C         14.2870    0.2390   23.8230 C.2    11  GLY11       0.2611
     34  O         15.2100   -0.2810   23.2000 O.2    11  GLY11      -0.2717
     35  N         14.3330    1.4890   24.2730 N.am   12  ARG12      -0.1979
     36  CA        15.4760    2.3580   24.0100 C.3    12  ARG12       0.1597
     37  C         16.7450    2.0870   24.8120 C.2    12  ARG12       0.2287
     38  O         17.7260    2.8260   24.6770 O.2    12  ARG12      -0.2864
     39  CB        15.0620    3.8280   24.1660 C.3    12  ARG12       0.0334
     40  CG        14.3140    4.3800   22.9530 C.3    12  ARG12       0.0492
     41  CD        13.9500    5.8470   23.1210 C.3    12  ARG12       0.2205
     42  NE        13.3760    6.4100   21.9000 N.pl3  12  ARG12      -0.0865
     43  CZ        14.0670    6.6710   20.7910 C.cat  12  ARG12       0.5346
     44  NH1       15.3670    6.4250   20.7410 N.pl3  12  ARG12       0.1354
     45  NH2       13.4570    7.1810   19.7270 N.pl3  12  ARG12       0.1354
     46  N          6.1650    5.4310   38.3470 N.3    37  TRP37      -0.1241
     47  CA         6.2090    6.5120   37.3700 C.3    37  TRP37       0.1605
     48  C          4.9760    7.4000   37.4710 C.2    37  TRP37       0.2264
     49  O          5.0800    8.6260   37.4400 O.2    37  TRP37      -0.2867
     50  CB         6.3090    5.9410   35.9560 C.3    37  TRP37       0.0550
     51  CG         6.6020    6.9760   34.9170 C.ar   37  TRP37       0.0003
     52  CD1        5.7860    7.3690   33.8960 C.ar   37  TRP37       0.0946
     53  CD2        7.8100    7.7360   34.7820 C.ar   37  TRP37       0.0152
     54  NE1        6.4110    8.3220   33.1310 N.ar   37  TRP37      -0.2442
     55  CE2        7.6550    8.5670   33.6530 C.ar   37  TRP37       0.0810
     56  CE3        9.0090    7.7930   35.5070 C.ar   37  TRP37       0.0012
     57  CZ2        8.6550    9.4440   33.2260 C.ar   37  TRP37       0.0191
     58  CZ3       10.0040    8.6670   35.0830 C.ar   37  TRP37       0.0001
     59  CH2        9.8170    9.4810   33.9510 C.ar   37  TRP37       0.0015
     60  N          9.5500   11.4220   37.3820 N.3    43  LYS43      -0.1245
     61  CA         9.3040   12.0880   36.1070 C.3    43  LYS43       0.1561
     62  C          9.6160   13.5810   36.1730 C.2    43  LYS43       0.2260
     63  O         10.2810   14.1240   35.2960 O.2    43  LYS43      -0.2867
     64  CB         7.8430   11.9020   35.6900 C.3    43  LYS43       0.0271
     65  CG         7.5230   12.4470   34.3060 C.3    43  LYS43       0.0035
     66  CD         6.0220   12.5340   34.0780 C.3    43  LYS43       0.0206
     67  CE         5.6680   12.3600   32.6050 C.3    43  LYS43       0.1093
     68  NZ         6.4790   13.2050   31.6970 N.3    43  LYS43      -0.1314
     69  N         11.5930   14.8930   31.5030 N.3    49  GLY49      -0.1210
     70  CA        10.4760   14.1390   32.0470 C.3    49  GLY49       0.1956
     71  C         10.3180   12.7360   31.4850 C.2    49  GLY49       0.2612
     72  O          9.2160   12.1810   31.4920 O.2    49  GLY49      -0.2717
     73  N         11.4140   12.1540   31.0100 N.am   50  GLN50      -0.1965
     74  CA        11.3670   10.8170   30.4410 C.3    50  GLN50       0.1733
     75  C         12.5690    9.9630   30.8020 C.2    50  GLN50       0.2616
     76  O         13.5720   10.4530   31.3210 O.2    50  GLN50      -0.2715
     77  CB        11.2740   10.8960   28.9160 C.3    50  GLN50       0.0408
     78  CG        10.0250   11.5690   28.3870 C.3    50  GLN50       0.0908
     79  CD         9.8290   11.3230   26.9010 C.2    50  GLN50       0.2608
     80  OE1       10.6740   11.6870   26.0760 O.2    50  GLN50      -0.2717
     81  NE2        8.7110   10.6970   26.5520 N.am   50  GLN50      -0.0878
     82  N         12.4470    8.6710   30.5200 N.am   51  LEU51      -0.1964
     83  CA        13.5210    7.7200   30.7600 C.3    51  LEU51       0.1713
     84  C         13.9170    7.2300   29.3700 C.2    51  LEU51       0.2458
     85  O         13.1600    7.4000   28.4140 O.2    51  LEU51      -0.2730
     86  CB        13.0240    6.5540   31.6220 C.3    51  LEU51       0.0310
     87  CG        12.5480    6.9220   33.0340 C.3    51  LEU51       0.0022
     88  CD1       12.1420    5.6510   33.7790 C.3    51  LEU51       0.0001
     89  CD2       13.6540    7.6400   33.7930 C.3    51  LEU51       0.0001
     90  N         15.0820    6.5790   29.2420 N.am   52  PRO52      -0.2727
     91  CA        16.0490    6.2590   30.2940 C.3    52  PRO52       0.1402
     92  C         16.8310    7.4030   30.9250 C.2    52  PRO52       0.2269
     93  O         16.9820    8.4870   30.3520 O.2    52  PRO52      -0.2865
     94  CB        16.9820    5.2720   29.6060 C.3    52  PRO52       0.0296
     95  CG        17.0230    5.7890   28.2050 C.3    52  PRO52       0.0237
     96  CD        15.5540    6.0780   27.9360 C.3    52  PRO52       0.0939
     97  N         18.3970   10.8670   27.5490 N.3    63  GLN63      -0.1231
     98  CA        18.4460   10.7030   26.0900 C.3    63  GLN63       0.1698
     99  C         19.2780    9.4740   25.7240 C.2    63  GLN63       0.2593
    100  O         20.5020    9.4550   25.8980 O.2    63  GLN63      -0.2718
    101  CB        19.0320   11.9500   25.4100 C.3    63  GLN63       0.0381
    102  CG        18.1340   13.1940   25.4330 C.3    63  GLN63       0.0905
    103  CD        16.9150   13.0580   24.5360 C.2    63  GLN63       0.2608
    104  OE1       16.8560   12.1730   23.6800 O.2    63  GLN63      -0.2717
    105  NE2       15.9380   13.9460   24.7200 N.am   63  GLN63      -0.0878
    106  N         18.6050    8.4540   25.2010 N.am   64  SER64      -0.1938
    107  CA        19.2670    7.2050   24.8330 C.3    64  SER64       0.2055
    108  C         20.4760    7.3660   23.9090 C.2    64  SER64       0.2643
    109  O         21.4940    6.7000   24.1030 O.2    64  SER64      -0.2714
    110  CB        18.2600    6.2420   24.2050 C.3    64  SER64       0.2130
    111  OG        17.7340    6.7710   23.0070 O.3    64  SER64      -0.2179
    112  N         20.3770    8.2450   22.9140 N.am   65  ASN65      -0.1971
    113  CA        21.4910    8.4480   21.9960 C.3    65  ASN65       0.1688
    114  C         22.6510    9.2040   22.6170 C.2    65  ASN65       0.2292
    115  O         23.7940    9.0740   22.1780 O.2    65  ASN65      -0.2864
    116  CB        21.0110    9.1500   20.7330 C.3    65  ASN65       0.1181
    117  CG        20.1230    8.2650   19.9060 C.2    65  ASN65       0.2629
    118  OD1       20.4840    7.1220   19.6160 O.2    65  ASN65      -0.2716
    119  ND2       18.9510    8.7740   19.5240 N.am   65  ASN65      -0.0877
    120  N         18.0660    6.0300   14.3880 N.3    96  GLU96      -0.1245
    121  CA        17.1420    6.7800   15.2270 C.3    96  GLU96       0.1567
    122  C         15.8650    7.1270   14.4650 C.2    96  GLU96       0.2260
    123  O         14.7620    6.9610   14.9860 O.2    96  GLU96      -0.2867
    124  CB        17.8240    8.0550   15.7390 C.3    96  GLU96       0.0388
    125  CG        16.9200    9.0230   16.5220 C.3    96  GLU96       0.1160
    126  CD        16.2550    8.4010   17.7480 C.2    96  GLU96       0.3649
    127  OE1       16.7050    7.3330   18.2220 O.co2  96  GLU96      -0.2457
    128  OE2       15.2820    8.9940   18.2530 O.co2  96  GLU96      -0.2457
    129  N          8.6050    3.0850   16.7330 N.3   103  ILE103     -0.1245
    130  CA         7.9670    3.4350   17.9900 C.3   103  ILE103      0.1561
    131  C          6.5680    4.0010   17.7610 C.2   103  ILE103      0.2260
    132  O          5.6440    3.7110   18.5170 O.2   103  ILE103     -0.2867
    133  CB         8.8220    4.4530   18.7690 C.3   103  ILE103      0.0252
    134  CG1       10.1180    3.7720   19.2440 C.3   103  ILE103      0.0019
    135  CG2        8.0310    5.0080   19.9520 C.3   103  ILE103      0.0019
    136  CD1       11.0670    4.6950   19.9960 C.3   103  ILE103      0.0001
    137  N          3.1730    2.0940   19.3690 N.3   107  TYR107     -0.1241
    138  CA         2.3460    2.7970   20.3500 C.3   107  TYR107      0.1605
    139  C          1.1850    3.6410   19.8140 C.2   107  TYR107      0.2264
    140  O          0.2400    3.9230   20.5540 O.2   107  TYR107     -0.2867
    141  CB         3.2350    3.7020   21.2140 C.3   107  TYR107      0.0534
    142  CG         4.2310    2.9670   22.0870 C.ar  107  TYR107     -0.0201
    143  CD1        3.8370    2.3630   23.2810 C.ar  107  TYR107     -0.0009
    144  CD2        5.5670    2.8600   21.7070 C.ar  107  TYR107     -0.0009
    145  CE1        4.7540    1.6690   24.0750 C.ar  107  TYR107      0.0417
    146  CE2        6.4880    2.1690   22.4890 C.ar  107  TYR107      0.0417
    147  CZ         6.0780    1.5760   23.6680 C.ar  107  TYR107      0.1957
    148  OH         6.9960    0.8860   24.4320 O.3   107  TYR107     -0.2866
@<TRIPOS>BOND
     1   120   121    1
     2   122   123    2
     3   122   121    1
     4   121   124    1
     5   124   125    1
     6   125   126    1
     7   129   130    1
     8   126   127   ar
     9   126   128   ar
    10   131   130    1
    11   131   132    2
    12   130   133    1
    13   133   134    1
    14   133   135    1
    15   134   136    1
    16   137   138    1
    17   119   117   am
    18   118   117    2
    19    45    43    1
    20   139   138    1
    21   139   140    2
    22   117   116    1
    23   138   141    1
    24   116   113    1
    25    44    43    1
    26    43    42    2
    27   141   142    1
    28   144   142   ar
    29   144   146   ar
    30    42    41    1
    31   113   114    1
    32   113   112    1
    33   142   143   ar
    34   115   114    2
    35   146   147   ar
    36   112   108   am
    37    40    41    1
    38    40    39    1
    39   111   110    1
    40    34    33    2
    41   143   145   ar
    42   147   145   ar
    43   147   148    1
    44   104   103    2
    45    33    32    1
    46    33    35   am
    47   108   109    2
    48   108   107    1
    49    36    39    1
    50    36    35    1
    51    36    37    1
    52    32    31    1
    53   110   107    1
    54   103   105   am
    55   103   102    1
    56    38    37    2
    57   107   106    1
    58   106    99   am
    59   101   102    1
    60   101    98    1
    61    99   100    2
    62    99    98    1
    63    80    79    2
    64    98    97    1
    65    81    79   am
    66    12    11    1
    67    79    78    1
    68    11    10   ar
    69    11     9   ar
    70    30    28    1
    71    96    95    1
    72    96    90    1
    73    28    25    1
    74    28    29    1
    75    26    27    2
    76    26    25    1
    77    95    94    1
    78    10     8   ar
    79    78    77    1
    80    85    84    2
    81     9     7   ar
    82    25    24    1
    83    77    74    1
    84    90    84   am
    85    90    91    1
    86    84    83    1
    87    94    91    1
    88     8     6   ar
    89     7     6   ar
    90    91    92    1
    91    93    92    2
    92     6     5    1
    93    74    75    1
    94    74    73    1
    95    82    83    1
    96    82    75   am
    97    83    86    1
    98    75    76    2
    99    20    22   ar
   100    20    18   ar
   101    73    71   am
   102    22    23   ar
   103    71    72    2
   104    71    70    1
   105    69    70    1
   106    86    87    1
   107    68    67    1
   108    17    18    1
   109    17    14    1
   110     5     2    1
   111    16    15    2
   112    18    19   ar
   113    23    21   ar
   114    15    14    1
   115    13    14    1
   116    13     3   am
   117    67    66    1
   118     2     3    1
   119     2     1    1
   120    19    21   ar
   121    87    88    1
   122    87    89    1
   123    54    55   ar
   124    54    52   ar
   125    57    55   ar
   126    57    59   ar
   127     3     4    2
   128    55    53   ar
   129    52    51   ar
   130    59    58   ar
   131    66    65    1
   132    65    64    1
   133    53    51   ar
   134    53    56   ar
   135    51    50    1
   136    58    56   ar
   137    63    62    2
   138    64    61    1
   139    50    47    1
   140    61    62    1
   141    61    60    1
   142    47    48    1
   143    47    46    1
   144    49    48    2
