@<TRIPOS>MOLECULE
tmp/1mdbA01.pdb
 91 88 0 0 0
SMALL
GASTEIGER

@<TRIPOS>ATOM
      1  N        -11.7450   18.3740   38.1290 N.3   234  HIS234     -0.1226
      2  CA       -10.4650   18.7520   37.5020 C.3   234  HIS234      0.1752
      3  C        -10.7440   19.0340   36.0210 C.2   234  HIS234      0.2596
      4  O        -11.5520   18.3450   35.4040 O.2   234  HIS234     -0.2718
      5  CB        -9.4400   17.6220   37.6230 C.3   234  HIS234      0.0759
      6  CG        -8.1080   17.9430   37.0110 C.ar  234  HIS234      0.0818
      7  ND1       -7.1110   18.6120   37.6940 N.ar  234  HIS234     -0.2268
      8  CD2       -7.6320   17.7370   35.7610 C.ar  234  HIS234      0.1154
      9  CE1       -6.0810   18.8060   36.8880 C.ar  234  HIS234      0.1986
     10  NE2       -6.3720   18.2840   35.7090 N.ar  234  HIS234     -0.2212
     11  N        -10.0650   20.0240   35.4540 N.am  235  ASN235     -0.1960
     12  CA       -10.2870   20.4250   34.0560 C.3   235  ASN235      0.1819
     13  C        -10.3580   19.2870   33.0290 C.2   235  ASN235      0.2621
     14  O        -11.1750   19.3270   32.1110 O.2   235  ASN235     -0.2715
     15  CB        -9.2150   21.4350   33.6220 C.3   235  ASN235      0.1195
     16  CG        -9.6520   22.2890   32.4240 C.2   235  ASN235      0.2630
     17  OD1      -10.6550   23.0040   32.4890 O.2   235  ASN235     -0.2716
     18  ND2       -8.8880   22.2230   31.3330 N.am  235  ASN235     -0.0877
     19  N         -9.5000   18.2880   33.1920 N.am  236  TYR236     -0.1974
     20  CA        -9.4160   17.1440   32.2900 C.3   236  TYR236      0.1639
     21  C        -10.7240   16.3190   32.2990 C.2   236  TYR236      0.2290
     22  O        -11.4170   16.2350   31.2750 O.2   236  TYR236     -0.2864
     23  CB        -8.1780   16.3150   32.6930 C.3   236  TYR236      0.0560
     24  CG        -7.9250   15.0030   31.9730 C.ar  236  TYR236     -0.0198
     25  CD1       -7.1190   14.0340   32.5680 C.ar  236  TYR236     -0.0009
     26  CD2       -8.4710   14.7250   30.7140 C.ar  236  TYR236     -0.0009
     27  CE1       -6.8560   12.8220   31.9500 C.ar  236  TYR236      0.0417
     28  CE2       -8.2140   13.4950   30.0760 C.ar  236  TYR236      0.0417
     29  CZ        -7.4030   12.5530   30.7100 C.ar  236  TYR236      0.1957
     30  OH        -7.1330   11.3330   30.1390 O.3   236  TYR236     -0.2866
     31  N        -12.4350   17.7980   28.8980 N.3   240  SER240     -0.1217
     32  CA       -11.6100   17.3630   27.7690 C.3   240  SER240      0.1889
     33  C        -11.7710   15.9180   27.3070 C.2   240  SER240      0.2288
     34  O        -10.8100   15.1460   27.3420 O.2   240  SER240     -0.2866
     35  CB       -10.1320   17.6130   28.0890 C.3   240  SER240      0.2089
     36  OG        -9.9030   18.9630   28.4660 O.3   240  SER240     -0.2183
     37  N         -2.7480   14.3820   31.4020 N.3   307  GLY307     -0.1225
     38  CA        -2.4660   15.0140   32.6830 C.3   307  GLY307      0.1811
     39  C         -0.9600   15.0160   32.8690 C.2   307  GLY307      0.2280
     40  O         -0.3800   15.9130   33.4980 O.2   307  GLY307     -0.2866
     41  N         -3.9500   12.9720   25.7820 N.3   329  VAL329     -0.1231
     42  CA        -4.5120   14.2830   25.9850 C.3   329  VAL329      0.1692
     43  C         -3.5570   15.1590   26.7770 C.2   329  VAL329      0.2592
     44  O         -3.2070   14.8460   27.9110 O.2   329  VAL329     -0.2718
     45  CB        -5.8500   14.1700   26.7360 C.3   329  VAL329      0.0266
     46  CG1       -6.5610   15.5120   26.7370 C.3   329  VAL329      0.0020
     47  CG2       -6.7100   13.0950   26.0890 C.3   329  VAL329      0.0020
     48  N         -3.1340   16.2590   26.1690 N.am  330  PHE330     -0.1962
     49  CA        -2.2150   17.1780   26.8220 C.3   330  PHE330      0.1771
     50  C         -2.9110   18.5170   26.9340 C.2   330  PHE330      0.2620
     51  O         -2.9690   19.2800   25.9770 O.2   330  PHE330     -0.2715
     52  CB        -0.9110   17.2750   26.0140 C.3   330  PHE330      0.0574
     53  CG        -0.0100   18.4170   26.4220 C.ar  330  PHE330     -0.0200
     54  CD1        0.1140   18.7980   27.7600 C.ar  330  PHE330     -0.0042
     55  CD2        0.7340   19.0980   25.4620 C.ar  330  PHE330     -0.0042
     56  CE1        0.9680   19.8460   28.1330 C.ar  330  PHE330     -0.0003
     57  CE2        1.5930   20.1460   25.8190 C.ar  330  PHE330     -0.0003
     58  CZ         1.7110   20.5220   27.1540 C.ar  330  PHE330     -0.0000
     59  N         -3.4740   18.7800   28.1100 N.am  331  GLY331     -0.1940
     60  CA        -4.1690   20.0320   28.3230 C.3   331  GLY331      0.2014
     61  C         -3.7370   20.7150   29.6050 C.2   331  GLY331      0.2639
     62  O         -2.9390   20.1800   30.3700 O.2   331  GLY331     -0.2714
     63  N         -4.2680   21.9080   29.8330 N.am  332  MET332     -0.1963
     64  CA        -3.9670   22.6930   31.0270 C.3   332  MET332      0.1736
     65  C         -5.2300   23.4610   31.3790 C.2   332  MET332      0.2616
     66  O         -5.9930   23.8520   30.4870 O.2   332  MET332     -0.2715
     67  CB        -2.8300   23.6770   30.7400 C.3   332  MET332      0.0427
     68  CG        -3.0460   24.5080   29.4840 C.3   332  MET332      0.0599
     69  SD        -1.4360   24.9520   28.7470 S.3   332  MET332     -0.1393
     70  CE        -0.9600   23.3920   28.0380 C.3   332  MET332      0.0692
     71  N         -5.4450   23.6920   32.6690 N.am  333  ALA333     -0.1977
     72  CA        -6.6420   24.3930   33.1070 C.3   333  ALA333      0.1597
     73  C         -6.6240   25.8380   32.6280 C.2   333  ALA333      0.2287
     74  O         -7.6720   26.4980   32.5780 O.2   333  ALA333     -0.2864
     75  CB        -6.7600   24.3360   34.6380 C.3   333  ALA333      0.0319
     76  N         -5.6690   22.7100   24.9360 N.3   337  VAL337     -0.1245
     77  CA        -5.8620   21.2740   25.0680 C.3   337  VAL337      0.1561
     78  C         -5.4850   20.6210   23.7400 C.2   337  VAL337      0.2260
     79  O         -5.9630   21.0310   22.6780 O.2   337  VAL337     -0.2867
     80  CB        -7.3170   20.9110   25.4080 C.3   337  VAL337      0.0252
     81  CG1       -7.4750   19.3900   25.4190 C.3   337  VAL337      0.0019
     82  CG2       -7.6970   21.4820   26.7690 C.3   337  VAL337      0.0019
     83  N         -1.9980   12.5400   39.4460 N.3   519  LYS519     -0.1245
     84  CA        -0.6880   12.4280   38.8080 C.3   519  LYS519      0.1561
     85  C          0.4350   12.3610   39.8340 C.2   519  LYS519      0.2260
     86  O          0.2700   12.7320   41.0020 O.2   519  LYS519     -0.2867
     87  CB        -0.4150   13.5790   37.8300 C.3   519  LYS519      0.0271
     88  CG        -1.4160   14.7150   37.8190 C.3   519  LYS519      0.0035
     89  CD        -1.1020   15.7000   36.6930 C.3   519  LYS519      0.0206
     90  CE        -2.1390   16.8190   36.6190 C.3   519  LYS519      0.1093
     91  NZ        -1.9430   17.7190   35.4330 N.3   519  LYS519     -0.1314
@<TRIPOS>BOND
     1    79    78    2
     2    78    77    1
     3    76    77    1
     4    77    80    1
     5    80    81    1
     6    80    82    1
     7    55    57   ar
     8    55    53   ar
     9    41    42    1
    10    57    58   ar
    11    51    50    2
    12    42    45    1
    13    42    43    1
    14    52    53    1
    15    52    49    1
    16    47    45    1
    17    48    43   am
    18    48    49    1
    19    53    54   ar
    20    45    46    1
    21    43    44    2
    22    49    50    1
    23    50    59   am
    24    58    56   ar
    25    33    34    2
    26    33    32    1
    27    54    56   ar
    28    32    35    1
    29    32    31    1
    30    70    69    1
    31    35    36    1
    32    59    60    1
    33    60    61    1
    34    69    68    1
    35    68    67    1
    36    61    63   am
    37    61    62    2
    38    63    64    1
    39    28    29   ar
    40    28    26   ar
    41    30    29    1
    42    66    65    2
    43    29    27   ar
    44    26    24   ar
    45    67    64    1
    46    64    65    1
    47    22    21    2
    48    18    16   am
    49    65    71   am
    50    37    38    1
    51    27    25   ar
    52    24    25   ar
    53    24    23    1
    54    14    13    2
    55    20    21    1
    56    20    23    1
    57    20    19    1
    58    16    17    2
    59    16    15    1
    60    74    73    2
    61    73    72    1
    62    71    72    1
    63    38    39    1
    64    39    40    2
    65    13    19   am
    66    13    12    1
    67    72    75    1
    68    15    12    1
    69    12    11    1
    70     4     3    2
    71    91    90    1
    72    11     3   am
    73    10     8   ar
    74    10     9   ar
    75     8     6   ar
    76     3     2    1
    77    90    89    1
    78    89    88    1
    79     9     7   ar
    80     6     5    1
    81     6     7   ar
    82     2     5    1
    83     2     1    1
    84    88    87    1
    85    87    84    1
    86    84    83    1
    87    84    85    1
    88    85    86    2
