@<TRIPOS>MOLECULE
tmp/1mdbA00.pdb
 191 183 0 0 0
SMALL
GASTEIGER

@<TRIPOS>ATOM
      1  N         -8.6580   25.7680   39.1610 N.3   189  LEU189     -0.1245
      2  CA        -7.3770   25.8120   39.8750 C.3   189  LEU189      0.1561
      3  C         -6.2340   25.4400   38.9190 C.2   189  LEU189      0.2260
      4  O         -6.4110   24.5830   38.0700 O.2   189  LEU189     -0.2867
      5  CB        -7.3940   24.8200   41.0510 C.3   189  LEU189      0.0270
      6  CG        -8.4890   24.9250   42.1230 C.3   189  LEU189      0.0019
      7  CD1       -8.1990   23.9020   43.2080 C.3   189  LEU189      0.0001
      8  CD2       -8.5330   26.3180   42.7270 C.3   189  LEU189      0.0001
      9  N         -2.4990   23.7960   38.0780 N.3   191  GLY191     -0.1225
     10  CA        -1.8860   22.5950   38.6280 C.3   191  GLY191      0.1811
     11  C         -0.3750   22.4820   38.7200 C.2   191  GLY191      0.2280
     12  O          0.1660   21.3790   38.6110 O.2   191  GLY191     -0.2866
     13  N        -11.7450   18.3740   38.1290 N.3   234  HIS234     -0.1226
     14  CA       -10.4650   18.7520   37.5020 C.3   234  HIS234      0.1752
     15  C        -10.7440   19.0340   36.0210 C.2   234  HIS234      0.2596
     16  O        -11.5520   18.3450   35.4040 O.2   234  HIS234     -0.2718
     17  CB        -9.4400   17.6220   37.6230 C.3   234  HIS234      0.0759
     18  CG        -8.1080   17.9430   37.0110 C.ar  234  HIS234      0.0818
     19  ND1       -7.1110   18.6120   37.6940 N.ar  234  HIS234     -0.2268
     20  CD2       -7.6320   17.7370   35.7610 C.ar  234  HIS234      0.1154
     21  CE1       -6.0810   18.8060   36.8880 C.ar  234  HIS234      0.1986
     22  NE2       -6.3720   18.2840   35.7090 N.ar  234  HIS234     -0.2212
     23  N        -10.0650   20.0240   35.4540 N.am  235  ASN235     -0.1960
     24  CA       -10.2870   20.4250   34.0560 C.3   235  ASN235      0.1819
     25  C        -10.3580   19.2870   33.0290 C.2   235  ASN235      0.2621
     26  O        -11.1750   19.3270   32.1110 O.2   235  ASN235     -0.2715
     27  CB        -9.2150   21.4350   33.6220 C.3   235  ASN235      0.1195
     28  CG        -9.6520   22.2890   32.4240 C.2   235  ASN235      0.2630
     29  OD1      -10.6550   23.0040   32.4890 O.2   235  ASN235     -0.2716
     30  ND2       -8.8880   22.2230   31.3330 N.am  235  ASN235     -0.0877
     31  N         -9.5000   18.2880   33.1920 N.am  236  TYR236     -0.1974
     32  CA        -9.4160   17.1440   32.2900 C.3   236  TYR236      0.1639
     33  C        -10.7240   16.3190   32.2990 C.2   236  TYR236      0.2290
     34  O        -11.4170   16.2350   31.2750 O.2   236  TYR236     -0.2864
     35  CB        -8.1780   16.3150   32.6930 C.3   236  TYR236      0.0560
     36  CG        -7.9250   15.0030   31.9730 C.ar  236  TYR236     -0.0198
     37  CD1       -7.1190   14.0340   32.5680 C.ar  236  TYR236     -0.0009
     38  CD2       -8.4710   14.7250   30.7140 C.ar  236  TYR236     -0.0009
     39  CE1       -6.8560   12.8220   31.9500 C.ar  236  TYR236      0.0417
     40  CE2       -8.2140   13.4950   30.0760 C.ar  236  TYR236      0.0417
     41  CZ        -7.4030   12.5530   30.7100 C.ar  236  TYR236      0.1957
     42  OH        -7.1330   11.3330   30.1390 O.3   236  TYR236     -0.2866
     43  N         -5.6460    9.0620   28.0580 N.3   305  VAL305     -0.1231
     44  CA        -4.5820    9.0910   29.0470 C.3   305  VAL305      0.1692
     45  C         -3.8830   10.4360   28.9010 C.2   305  VAL305      0.2593
     46  O         -3.3950   10.7870   27.8190 O.2   305  VAL305     -0.2718
     47  CB        -3.5840    7.9460   28.8560 C.3   305  VAL305      0.0266
     48  CG1       -2.5990    7.9350   30.0210 C.3   305  VAL305      0.0020
     49  CG2       -4.3260    6.6160   28.7960 C.3   305  VAL305      0.0020
     50  N         -3.8710   11.2090   29.9830 N.am  306  GLY306     -0.1942
     51  CA        -3.2540   12.5190   29.9410 C.3   306  GLY306      0.2014
     52  C         -3.0060   13.0810   31.3270 C.2   306  GLY306      0.2639
     53  O         -3.0590   12.3500   32.3100 O.2   306  GLY306     -0.2714
     54  N         -2.7480   14.3820   31.4020 N.am  307  GLY307     -0.1939
     55  CA        -2.4660   15.0140   32.6830 C.3   307  GLY307      0.2014
     56  C         -0.9600   15.0160   32.8690 C.2   307  GLY307      0.2639
     57  O         -0.3800   15.9130   33.4980 O.2   307  GLY307     -0.2714
     58  N         -0.3390   13.9820   32.3060 N.am  308  ALA308     -0.1963
     59  CA         1.1030   13.7800   32.3350 C.3   308  ALA308      0.1728
     60  C          1.4040   12.9230   31.1160 C.2   308  ALA308      0.2616
     61  O          0.5130   12.2770   30.5750 O.2   308  ALA308     -0.2715
     62  CB         1.5270   13.0390   33.6220 C.3   308  ALA308      0.0334
     63  N          2.6540   12.8900   30.6860 N.am  309  LYS309     -0.1977
     64  CA         2.9930   12.0950   29.5150 C.3   309  LYS309      0.1596
     65  C          2.8340   10.5850   29.7060 C.2   309  LYS309      0.2287
     66  O          3.3740    9.9950   30.6390 O.2   309  LYS309     -0.2864
     67  CB         4.4240   12.4070   29.0790 C.3   309  LYS309      0.0298
     68  CG         4.8200   11.7870   27.7560 C.3   309  LYS309      0.0038
     69  CD         6.2220   12.2120   27.3690 C.3   309  LYS309      0.0206
     70  CE         6.6360   11.5880   26.0480 C.3   309  LYS309      0.1093
     71  NZ         8.0420   11.9270   25.7190 N.3   309  LYS309     -0.1314
     72  N         -4.1350   10.3220   23.5360 N.3   328  GLN328     -0.1231
     73  CA        -3.3120   11.0510   24.4800 C.3   328  GLN328      0.1698
     74  C         -3.8860   12.4460   24.5670 C.2   328  GLN328      0.2592
     75  O         -4.2800   13.0310   23.5630 O.2   328  GLN328     -0.2718
     76  CB        -1.8530   11.0820   24.0290 C.3   328  GLN328      0.0381
     77  CG        -1.1930    9.7090   24.0860 C.3   328  GLN328      0.0905
     78  CD         0.3080    9.7820   24.2500 C.2   328  GLN328      0.2608
     79  OE1        1.0420    8.9780   23.6810 O.2   328  GLN328     -0.2717
     80  NE2        0.7740   10.7410   25.0400 N.am  328  GLN328     -0.0878
     81  N         -3.9500   12.9720   25.7820 N.am  329  VAL329     -0.1966
     82  CA        -4.5120   14.2830   25.9850 C.3   329  VAL329      0.1727
     83  C         -3.5570   15.1590   26.7770 C.2   329  VAL329      0.2616
     84  O         -3.2070   14.8460   27.9110 O.2   329  VAL329     -0.2715
     85  CB        -5.8500   14.1700   26.7360 C.3   329  VAL329      0.0290
     86  CG1       -6.5610   15.5120   26.7370 C.3   329  VAL329      0.0023
     87  CG2       -6.7100   13.0950   26.0890 C.3   329  VAL329      0.0023
     88  N         -3.1340   16.2590   26.1690 N.am  330  PHE330     -0.1960
     89  CA        -2.2150   17.1780   26.8220 C.3   330  PHE330      0.1771
     90  C         -2.9110   18.5170   26.9340 C.2   330  PHE330      0.2620
     91  O         -2.9690   19.2800   25.9770 O.2   330  PHE330     -0.2715
     92  CB        -0.9110   17.2750   26.0140 C.3   330  PHE330      0.0574
     93  CG        -0.0100   18.4170   26.4220 C.ar  330  PHE330     -0.0200
     94  CD1        0.1140   18.7980   27.7600 C.ar  330  PHE330     -0.0042
     95  CD2        0.7340   19.0980   25.4620 C.ar  330  PHE330     -0.0042
     96  CE1        0.9680   19.8460   28.1330 C.ar  330  PHE330     -0.0003
     97  CE2        1.5930   20.1460   25.8190 C.ar  330  PHE330     -0.0003
     98  CZ         1.7110   20.5220   27.1540 C.ar  330  PHE330     -0.0000
     99  N         -3.4740   18.7800   28.1100 N.am  331  GLY331     -0.1940
    100  CA        -4.1690   20.0320   28.3230 C.3   331  GLY331      0.2014
    101  C         -3.7370   20.7150   29.6050 C.2   331  GLY331      0.2639
    102  O         -2.9390   20.1800   30.3700 O.2   331  GLY331     -0.2714
    103  N         -4.2680   21.9080   29.8330 N.am  332  MET332     -0.1963
    104  CA        -3.9670   22.6930   31.0270 C.3   332  MET332      0.1736
    105  C         -5.2300   23.4610   31.3790 C.2   332  MET332      0.2616
    106  O         -5.9930   23.8520   30.4870 O.2   332  MET332     -0.2715
    107  CB        -2.8300   23.6770   30.7400 C.3   332  MET332      0.0427
    108  CG        -3.0460   24.5080   29.4840 C.3   332  MET332      0.0599
    109  SD        -1.4360   24.9520   28.7470 S.3   332  MET332     -0.1393
    110  CE        -0.9600   23.3920   28.0380 C.3   332  MET332      0.0692
    111  N         -5.4450   23.6920   32.6690 N.am  333  ALA333     -0.1963
    112  CA        -6.6420   24.3930   33.1070 C.3   333  ALA333      0.1728
    113  C         -6.6240   25.8380   32.6280 C.2   333  ALA333      0.2616
    114  O         -7.6720   26.4980   32.5780 O.2   333  ALA333     -0.2715
    115  CB        -6.7600   24.3360   34.6380 C.3   333  ALA333      0.0334
    116  N         -5.4320   26.3130   32.2630 N.am  334  GLU334     -0.1977
    117  CA        -5.2580   27.6770   31.7810 C.3   334  GLU334      0.1602
    118  C         -5.8480   27.8690   30.3950 C.2   334  GLU334      0.2287
    119  O         -6.1910   28.9920   30.0150 O.2   334  GLU334     -0.2864
    120  CB        -3.7770   28.0690   31.7280 C.3   334  GLU334      0.0415
    121  CG        -3.1770   28.4570   33.0490 C.3   334  GLU334      0.1163
    122  CD        -2.7580   27.2580   33.8710 C.2   334  GLU334      0.3649
    123  OE1       -2.7720   26.1240   33.3390 O.co2 334  GLU334     -0.2457
    124  OE2       -2.4040   27.4550   35.0470 O.co2 334  GLU334     -0.2457
    125  N          1.7300   13.7260   21.8820 N.3   353  GLN353     -0.1245
    126  CA         0.7310   14.1500   22.8490 C.3   353  GLN353      0.1566
    127  C         -0.3250   15.0210   22.1510 C.2   353  GLN353      0.2260
    128  O         -0.8590   15.9570   22.7440 O.2   353  GLN353     -0.2867
    129  CB         1.3980   14.9330   23.9930 C.3   353  GLN353      0.0367
    130  CG         2.1320   14.0790   25.0410 C.3   353  GLN353      0.0905
    131  CD         3.2250   13.1880   24.4620 C.2   353  GLN353      0.2608
    132  OE1        2.9890   12.0260   24.1240 O.2   353  GLN353     -0.2717
    133  NE2        4.4230   13.7300   24.3440 N.am  353  GLN353     -0.0878
    134  N          0.7880   32.6590   26.8640 N.3   409  TYR409     -0.1241
    135  CA         0.8960   32.0810   28.1970 C.3   409  TYR409      0.1605
    136  C          2.0270   31.0600   28.2140 C.2   409  TYR409      0.2264
    137  O          2.0880   30.1840   27.3500 O.2   409  TYR409     -0.2867
    138  CB        -0.4200   31.3920   28.5780 C.3   409  TYR409      0.0534
    139  CG        -0.2790   30.3930   29.7030 C.ar  409  TYR409     -0.0201
    140  CD1        0.1350   30.7970   30.9720 C.ar  409  TYR409     -0.0009
    141  CD2       -0.5460   29.0400   29.4970 C.ar  409  TYR409     -0.0009
    142  CE1        0.2810   29.8820   32.0050 C.ar  409  TYR409      0.0417
    143  CE2       -0.4070   28.1120   30.5250 C.ar  409  TYR409      0.0417
    144  CZ         0.0090   28.5410   31.7750 C.ar  409  TYR409      0.1957
    145  OH         0.1710   27.6310   32.7920 O.3   409  TYR409     -0.2866
    146  N          3.2420   27.9470   29.4070 N.3   411  THR411     -0.1218
    147  CA         2.7130   26.7450   30.0360 C.3   411  THR411      0.1862
    148  C          3.6680   26.0560   31.0070 C.2   411  THR411      0.2287
    149  O          3.2250   25.3000   31.8630 O.2   411  THR411     -0.2866
    150  CB         2.3020   25.7140   28.9800 C.3   411  THR411      0.1770
    151  OG1        3.4740   25.0920   28.4470 O.3   411  THR411     -0.2211
    152  CG2        1.5380   26.3850   27.8550 C.3   411  THR411      0.0375
    153  N          5.9940   23.9270   30.0800 N.3   413  ASP413     -0.1239
    154  CA         6.4090   22.6450   29.5220 C.3   413  ASP413      0.1674
    155  C          7.5180   22.8010   28.4890 C.2   413  ASP413      0.2266
    156  O          7.6010   23.8190   27.7960 O.2   413  ASP413     -0.2867
    157  CB         5.2200   21.9390   28.8720 C.3   413  ASP413      0.1410
    158  CG         4.0840   21.7090   29.8470 C.2   413  ASP413      0.3668
    159  OD1        3.0360   22.3790   29.7190 O.co2 413  ASP413     -0.2456
    160  OD2        4.2560   20.8690   30.7520 O.co2 413  ASP413     -0.2456
    161  N          5.9140   16.1830   24.0910 N.3   425  VAL425     -0.1245
    162  CA         6.3380   16.7460   25.3640 C.3   425  VAL425      0.1561
    163  C          7.5240   15.9990   25.9610 C.2   425  VAL425      0.2260
    164  O          7.5690   14.7670   25.9450 O.2   425  VAL425     -0.2867
    165  CB         5.1650   16.7260   26.3810 C.3   425  VAL425      0.0252
    166  CG1        5.5930   17.3570   27.7130 C.3   425  VAL425      0.0019
    167  CG2        3.9780   17.4780   25.8040 C.3   425  VAL425      0.0019
    168  N          8.7760   17.1060   29.1340 N.3   427  GLY427     -0.1210
    169  CA         8.3710   17.1560   30.5260 C.3   427  GLY427      0.1956
    170  C          8.3140   18.6130   30.9440 C.2   427  GLY427      0.2611
    171  O          8.5210   19.4970   30.1100 O.2   427  GLY427     -0.2717
    172  N          8.0250   18.8760   32.2170 N.am  428  ARG428     -0.1979
    173  CA         7.9730   20.2490   32.7120 C.3   428  ARG428      0.1597
    174  C          9.3660   20.8340   32.9330 C.2   428  ARG428      0.2287
    175  O         10.3030   20.1290   33.3130 O.2   428  ARG428     -0.2864
    176  CB         7.1720   20.3270   34.0190 C.3   428  ARG428      0.0334
    177  CG         5.6850   20.0470   33.8330 C.3   428  ARG428      0.0492
    178  CD         4.8710   20.4240   35.0580 C.3   428  ARG428      0.2205
    179  NE         4.8660   21.8640   35.3230 N.pl3 428  ARG428     -0.0865
    180  CZ         4.3030   22.7880   34.5400 C.cat 428  ARG428      0.5346
    181  NH1        3.6860   22.4440   33.4180 N.pl3 428  ARG428      0.1354
    182  NH2        4.3460   24.0690   34.8930 N.pl3 428  ARG428      0.1354
    183  N         -1.9980   12.5400   39.4460 N.3   519  LYS519     -0.1245
    184  CA        -0.6880   12.4280   38.8080 C.3   519  LYS519      0.1561
    185  C          0.4350   12.3610   39.8340 C.2   519  LYS519      0.2260
    186  O          0.2700   12.7320   41.0020 O.2   519  LYS519     -0.2867
    187  CB        -0.4150   13.5790   37.8300 C.3   519  LYS519      0.0271
    188  CG        -1.4160   14.7150   37.8190 C.3   519  LYS519      0.0035
    189  CD        -1.1020   15.7000   36.6930 C.3   519  LYS519      0.0206
    190  CE        -2.1390   16.8190   36.6190 C.3   519  LYS519      0.1093
    191  NZ        -1.9430   17.7190   35.4330 N.3   519  LYS519     -0.1314
@<TRIPOS>BOND
     1   125   126    1
     2   127   128    2
     3   127   126    1
     4   126   129    1
     5    72    73    1
     6    75    74    2
     7    79    78    2
     8   129   130    1
     9    76    77    1
    10    76    73    1
    11    77    78    1
    12   161   162    1
    13   132   131    2
    14    78    80   am
    15   133   131   am
    16   131   130    1
    17    73    74    1
    18    74    81   am
    19   162   163    1
    20   162   165    1
    21    95    97   ar
    22    95    93   ar
    23    71    70    1
    24    81    82    1
    25   167   165    1
    26    97    98   ar
    27   164   163    2
    28    91    90    2
    29    82    85    1
    30    82    83    1
    31    92    93    1
    32    92    89    1
    33    70    69    1
    34    87    85    1
    35    88    83   am
    36    88    89    1
    37   165   166    1
    38    93    94   ar
    39    85    86    1
    40    83    84    2
    41    89    90    1
    42   134   135    1
    43    90    99   am
    44    98    96   ar
    45   137   136    2
    46    69    68    1
    47    68    67    1
    48    94    96   ar
    49   156   155    2
    50    46    45    2
    51   152   150    1
    52   110   109    1
    53    43    44    1
    54    99   100    1
    55   135   136    1
    56   135   138    1
    57   100   101    1
    58   151   150    1
    59   155   154    1
    60   138   139    1
    61   109   108    1
    62    49    47    1
    63    47    44    1
    64    47    48    1
    65   157   154    1
    66   157   158    1
    67    45    44    1
    68    45    50   am
    69   150   147    1
    70    67    64    1
    71   168   169    1
    72   146   147    1
    73   108   107    1
    74   141   139   ar
    75   141   143   ar
    76    64    65    1
    77    64    63    1
    78   154   153    1
    79   101   103   am
    80   101   102    2
    81   139   140   ar
    82    65    66    2
    83   159   158   ar
    84   103   104    1
    85   158   160   ar
    86    51    50    1
    87    51    52    1
    88   119   118    2
    89   147   148    1
    90    40    41   ar
    91    40    38   ar
    92   171   170    2
    93    42    41    1
    94   118   117    1
    95   106   105    2
    96   143   144   ar
    97   169   170    1
    98    61    60    2
    99    63    60   am
   100    41    39   ar
   101    38    36   ar
   102   107   104    1
   103   170   172   am
   104   140   142   ar
   105   148   149    2
   106   104   105    1
   107    60    59    1
   108    34    33    2
   109    52    54   am
   110    52    53    2
   111    30    28   am
   112   105   111   am
   113    54    55    1
   114   120   117    1
   115   120   121    1
   116   144   142   ar
   117   144   145    1
   118   117   116    1
   119    39    37   ar
   120    36    37   ar
   121    36    35    1
   122    26    25    2
   123   172   173    1
   124   116   113   am
   125    32    33    1
   126    32    35    1
   127    32    31    1
   128    58    59    1
   129    58    56   am
   130    59    62    1
   131    28    29    2
   132    28    27    1
   133   114   113    2
   134   113   112    1
   135   111   112    1
   136    55    56    1
   137   173   174    1
   138   173   176    1
   139    56    57    2
   140   174   175    2
   141    25    31   am
   142    25    24    1
   143   121   122    1
   144   112   115    1
   145   123   122   ar
   146   181   180    1
   147    27    24    1
   148   177   176    1
   149   177   178    1
   150   122   124   ar
   151    24    23    1
   152   180   182    1
   153   180   179    2
   154   178   179    1
   155    16    15    2
   156   191   190    1
   157    23    15   am
   158    22    20   ar
   159    22    21   ar
   160    20    18   ar
   161    15    14    1
   162   190   189    1
   163   189   188    1
   164    21    19   ar
   165    18    17    1
   166    18    19   ar
   167    14    17    1
   168    14    13    1
   169   188   187    1
   170   187   184    1
   171     4     3    2
   172     9    10    1
   173    12    11    2
   174    10    11    1
   175   184   183    1
   176   184   185    1
   177     3     2    1
   178     1     2    1
   179   185   186    2
   180     2     5    1
   181     5     6    1
   182     6     8    1
   183     6     7    1
