@<TRIPOS>MOLECULE
tmp/1mdcA00.pdb
 207 192 0 0 0
SMALL
GASTEIGER

@<TRIPOS>ATOM
      1  N          5.7880   11.0700    6.3720 N.3    15  PHE15      -0.1241
      2  CA         7.2290   11.1790    6.2660 C.3    15  PHE15       0.1605
      3  C          7.8930    9.8030    6.2590 C.2    15  PHE15       0.2264
      4  O          8.8540    9.5540    5.5630 O.2    15  PHE15      -0.2867
      5  CB         7.7970   12.1670    7.2950 C.3    15  PHE15       0.0534
      6  CG         9.2630   12.5790    7.1480 C.ar   15  PHE15      -0.0203
      7  CD1        9.7570   13.0490    5.9420 C.ar   15  PHE15      -0.0042
      8  CD2       10.1160   12.5110    8.2620 C.ar   15  PHE15      -0.0042
      9  CE1       11.0980   13.4570    5.8330 C.ar   15  PHE15      -0.0003
     10  CE2       11.4590   12.8910    8.1650 C.ar   15  PHE15      -0.0003
     11  CZ        11.9340   13.3610    6.9430 C.ar   15  PHE15      -0.0000
     12  N          7.7300    8.4340    2.7960 N.3    18  PHE18      -0.1227
     13  CA         8.6830    9.0220    1.8920 C.3    18  PHE18       0.1736
     14  C         10.0900    8.4470    2.1420 C.2    18  PHE18       0.2595
     15  O         10.8200    8.1810    1.2000 O.2    18  PHE18      -0.2718
     16  CB         8.8010   10.6010    2.1010 C.3    18  PHE18       0.0547
     17  CG        10.0580   11.1630    1.5010 C.ar   18  PHE18      -0.0202
     18  CD1       10.2040   11.2870    0.1240 C.ar   18  PHE18      -0.0042
     19  CD2       11.0950   11.5710    2.3190 C.ar   18  PHE18      -0.0042
     20  CE1       11.3660   11.8130   -0.4280 C.ar   18  PHE18      -0.0003
     21  CE2       12.2880   12.0880    1.7700 C.ar   18  PHE18      -0.0003
     22  CZ        12.4220   12.2140    0.4120 C.ar   18  PHE18      -0.0000
     23  N         10.5000    8.2750    3.4000 N.am   19  LEU19      -0.1980
     24  CA        11.8410    7.7600    3.6630 C.3    19  LEU19       0.1596
     25  C         12.0200    6.3320    3.1720 C.2    19  LEU19       0.2287
     26  O         13.1120    5.9290    2.7580 O.2    19  LEU19      -0.2864
     27  CB        12.1360    7.8480    5.1210 C.3    19  LEU19       0.0297
     28  CG        12.1970    9.3100    5.6030 C.3    19  LEU19       0.0022
     29  CD1       12.2460    9.3290    7.0990 C.3    19  LEU19       0.0001
     30  CD2       13.4280   10.0100    5.0880 C.3    19  LEU19       0.0001
     31  N         12.9260    6.0530   -0.2420 N.3    22  ALA22      -0.1245
     32  CA        14.2830    6.4940   -0.4790 C.3    22  ALA22       0.1562
     33  C         15.3080    5.3780   -0.2410 C.2    22  ALA22       0.2260
     34  O         16.5220    5.5480   -0.4580 O.2    22  ALA22      -0.2867
     35  CB        14.6100    7.8190    0.1940 C.3    22  ALA22       0.0290
     36  N         16.2770    4.0920    2.6120 N.3    24  LEU24      -0.1245
     37  CA        17.1880    4.2630    3.7290 C.3    24  LEU24       0.1561
     38  C         17.0780    3.0860    4.6820 C.2    24  LEU24       0.2260
     39  O         16.0600    2.3940    4.7340 O.2    24  LEU24      -0.2867
     40  CB        16.8050    5.4910    4.5750 C.3    24  LEU24       0.0270
     41  CG        16.7570    6.8360    3.8340 C.3    24  LEU24       0.0019
     42  CD1       16.7330    7.9710    4.8230 C.3    24  LEU24       0.0001
     43  CD2       17.9200    7.0820    2.9100 C.3    24  LEU24       0.0001
     44  N         15.4750    9.7190   11.7240 N.3    32  LEU32      -0.1245
     45  CA        14.8700   10.8610   11.0490 C.3    32  LEU32       0.1561
     46  C         13.4600   11.1650   11.4800 C.2    32  LEU32       0.2260
     47  O         13.0640   12.3280   11.6290 O.2    32  LEU32      -0.2867
     48  CB        14.9610   10.7900    9.5190 C.3    32  LEU32       0.0270
     49  CG        16.4090   10.9810    9.0630 C.3    32  LEU32       0.0019
     50  CD1       16.4780   10.5660    7.5900 C.3    32  LEU32       0.0001
     51  CD2       16.8020   12.4700    9.1830 C.3    32  LEU32       0.0001
     52  N         15.1840   25.1990   11.4830 N.3    39  GLN39      -0.1245
     53  CA        15.8980   25.7190   10.3370 C.3    39  GLN39       0.1566
     54  C         15.7520   27.2440   10.2200 C.2    39  GLN39       0.2260
     55  O         14.6830   27.7970   10.4810 O.2    39  GLN39      -0.2867
     56  CB        15.6430   24.9530    9.0660 C.3    39  GLN39       0.0367
     57  CG        14.2280   25.0200    8.6500 C.3    39  GLN39       0.0905
     58  CD        14.1440   24.3620    7.3240 C.2    39  GLN39       0.2608
     59  OE1       14.4050   24.9700    6.2920 O.2    39  GLN39      -0.2717
     60  NE2       13.7970   23.1100    7.3750 N.am   39  GLN39      -0.0878
     61  N         22.7730   15.6020    3.2230 N.3    73  ILE73      -0.1231
     62  CA        21.5820   15.9600    3.9750 C.3    73  ILE73       0.1692
     63  C         21.0280   14.7960    4.7890 C.2    73  ILE73       0.2592
     64  O         21.4810   13.6450    4.6840 O.2    73  ILE73      -0.2718
     65  CB        20.4980   16.4230    2.9830 C.3    73  ILE73       0.0266
     66  CG1       20.1500   15.3110    2.0410 C.3    73  ILE73       0.0019
     67  CG2       20.9570   17.6570    2.1600 C.3    73  ILE73       0.0020
     68  CD1       18.7800   15.5400    1.3890 C.3    73  ILE73       0.0001
     69  N         20.0240   15.0810    5.6100 N.am   74  GLY74      -0.1957
     70  CA        19.4520   14.0120    6.3900 C.3    74  GLY74       0.1869
     71  C         20.4480   13.4320    7.3510 C.2    74  GLY74       0.2309
     72  O         21.1240   14.1420    8.0710 O.2    74  GLY74      -0.2863
     73  N         23.2090   11.4270    3.9580 N.3    77  ASP77      -0.1239
     74  CA        22.9810   11.0190    2.5810 C.3    77  ASP77       0.1674
     75  C         23.6560   11.9360    1.5850 C.2    77  ASP77       0.2266
     76  O         23.4740   13.1360    1.6700 O.2    77  ASP77      -0.2867
     77  CB        21.4350   10.9530    2.3840 C.3    77  ASP77       0.1410
     78  CG        20.7950   10.1070    3.5150 C.2    77  ASP77       0.3668
     79  OD1       20.9980    8.8450    3.3250 O.co2  77  ASP77      -0.2456
     80  OD2       20.1890   10.5260    4.5240 O.co2  77  ASP77      -0.2456
     81  N         24.1010   13.7340   -1.8450 N.3    79  VAL79      -0.1245
     82  CA        23.2460   14.0610   -2.9770 C.3    79  VAL79       0.1561
     83  C         23.7900   15.2640   -3.7510 C.2    79  VAL79       0.2260
     84  O         24.7990   15.8630   -3.3900 O.2    79  VAL79      -0.2867
     85  CB        21.8370   14.4890   -2.4390 C.3    79  VAL79       0.0252
     86  CG1       21.2320   13.3350   -1.6030 C.3    79  VAL79       0.0019
     87  CG2       21.9350   15.7830   -1.5600 C.3    79  VAL79       0.0019
     88  N         13.7380   22.8880   -3.1750 N.3    92  HIS92      -0.1241
     89  CA        15.0070   22.1950   -3.1340 C.3    92  HIS92       0.1621
     90  C         14.8590   20.9060   -3.8850 C.2    92  HIS92       0.2264
     91  O         14.0440   20.0950   -3.4610 O.2    92  HIS92      -0.2867
     92  CB        15.2110   21.8160   -1.6640 C.3    92  HIS92       0.0745
     93  CG        16.5160   21.2220   -1.2790 C.ar   92  HIS92       0.0817
     94  ND1       16.8350   20.9140    0.1070 N.ar   92  HIS92      -0.2268
     95  CD2       17.5430   20.8760   -2.0550 C.ar   92  HIS92       0.1154
     96  CE1       18.0700   20.4380    0.0700 C.ar   92  HIS92       0.1986
     97  NE2       18.5250   20.3670   -1.1650 N.ar   92  HIS92      -0.2212
     98  N         16.5740   17.4220   -5.0710 N.3    94  VAL94      -0.1245
     99  CA        17.7770   16.6910   -4.6970 C.3    94  VAL94       0.1561
    100  C         17.8810   15.4520   -5.5320 C.2    94  VAL94       0.2260
    101  O         16.8610   14.8130   -5.7500 O.2    94  VAL94      -0.2867
    102  CB        17.8470   16.3360   -3.2020 C.3    94  VAL94       0.0252
    103  CG1       17.6970   17.5690   -2.3060 C.3    94  VAL94       0.0019
    104  CG2       16.7320   15.3920   -2.8890 C.3    94  VAL94       0.0019
    105  N         19.7990   11.7560   -5.8080 N.3    96  GLY96      -0.1225
    106  CA        20.6860   10.8540   -5.0960 C.3    96  GLY96       0.1811
    107  C         20.7280    9.5250   -5.8040 C.2    96  GLY96       0.2280
    108  O         20.1190    9.3790   -6.8480 O.2    96  GLY96      -0.2866
    109  N         19.2690    6.8660   -5.0320 N.3    98  ALA98      -0.1231
    110  CA        17.9190    6.3100   -5.0200 C.3    98  ALA98       0.1694
    111  C         16.9390    6.9510   -6.0120 C.2    98  ALA98       0.2593
    112  O         15.9380    6.3440   -6.4100 O.2    98  ALA98      -0.2718
    113  CB        17.3200    6.3560   -3.6020 C.3    98  ALA98       0.0304
    114  N         17.1880    8.1940   -6.4200 N.am   99  GLY99      -0.1942
    115  CA        16.2650    8.8350   -7.3390 C.3    99  GLY99       0.2014
    116  C         16.2400   10.3450   -7.1140 C.2    99  GLY99       0.2639
    117  O         17.2400   10.8950   -6.6760 O.2    99  GLY99      -0.2714
    118  N         15.1130   11.0040   -7.4130 N.am  100  VAL100     -0.1963
    119  CA        14.9990   12.4560   -7.2560 C.3   100  VAL100      0.1727
    120  C         13.8870   12.8360   -6.3230 C.2   100  VAL100      0.2616
    121  O         12.8420   12.2170   -6.3510 O.2   100  VAL100     -0.2715
    122  CB        14.6130   12.9900   -8.6520 C.3   100  VAL100      0.0290
    123  CG1       14.4200   14.4940   -8.6220 C.3   100  VAL100      0.0023
    124  CG2       15.7680   12.7650   -9.5990 C.3   100  VAL100      0.0023
    125  N         14.0850   13.8350   -5.4880 N.am  101  ALA101     -0.1977
    126  CA        13.0120   14.2140   -4.6010 C.3   101  ALA101      0.1597
    127  C         12.9120   15.7340   -4.6700 C.2   101  ALA101      0.2287
    128  O         13.9100   16.4190   -4.9850 O.2   101  ALA101     -0.2864
    129  CB        13.2710   13.8230   -3.1670 C.3   101  ALA101      0.0319
    130  N         11.4900   19.1260   -2.4510 N.3   103  PHE103     -0.1241
    131  CA        11.0100   19.6040   -1.1680 C.3   103  PHE103      0.1605
    132  C         10.5790   21.0500   -1.4440 C.2   103  PHE103      0.2264
    133  O         11.4390   21.9020   -1.6630 O.2   103  PHE103     -0.2867
    134  CB        12.0900   19.6400   -0.0800 C.3   103  PHE103      0.0534
    135  CG        12.8230   18.3160    0.0500 C.ar  103  PHE103     -0.0203
    136  CD1       12.2670   17.2530    0.6730 C.ar  103  PHE103     -0.0042
    137  CD2       14.1370   18.2140   -0.4630 C.ar  103  PHE103     -0.0042
    138  CE1       12.9890   16.0380    0.7820 C.ar  103  PHE103     -0.0003
    139  CE2       14.8610   17.0380   -0.3530 C.ar  103  PHE103     -0.0003
    140  CZ        14.2640   15.9470    0.2600 C.ar  103  PHE103     -0.0000
    141  N          9.2390   24.4050   -0.1440 N.3   105  LYS105     -0.1245
    142  CA         9.1170   25.1070    1.1310 C.3   105  LYS105      0.1561
    143  C          8.3710   26.4120    0.9600 C.2   105  LYS105      0.2260
    144  O          8.8560   27.3040    0.3050 O.2   105  LYS105     -0.2867
    145  CB        10.5180   25.3830    1.6220 C.3   105  LYS105      0.0271
    146  CG        11.3910   24.1430    1.5520 C.3   105  LYS105      0.0035
    147  CD        12.8550   24.2580    2.0580 C.3   105  LYS105      0.0206
    148  CE        13.0560   24.7210    3.4780 C.3   105  LYS105      0.1093
    149  NZ        14.5060   24.8840    3.7990 N.3   105  LYS105     -0.1314
    150  N          6.2870   22.3170    4.2160 N.3   114  VAL114     -0.1245
    151  CA         7.1700   21.6920    3.2610 C.3   114  VAL114      0.1561
    152  C          6.4090   20.5130    2.6670 C.2   114  VAL114      0.2260
    153  O          5.9210   19.6780    3.4130 O.2   114  VAL114     -0.2867
    154  CB         8.4450   21.1290    3.9490 C.3   114  VAL114      0.0252
    155  CG1        9.3550   20.4760    2.8810 C.3   114  VAL114      0.0019
    156  CG2        9.3040   22.2530    4.5930 C.3   114  VAL114      0.0019
    157  N          6.7210   17.3260    0.2160 N.3   116  ILE116     -0.1245
    158  CA         7.7390   16.4980   -0.3730 C.3   116  ILE116      0.1561
    159  C          7.2030   15.4250   -1.2720 C.2   116  ILE116      0.2260
    160  O          6.2770   14.7210   -0.8820 O.2   116  ILE116     -0.2867
    161  CB         8.2970   15.7880    0.8830 C.3   116  ILE116      0.0252
    162  CG1        8.8520   16.8140    1.8960 C.3   116  ILE116      0.0019
    163  CG2        9.4240   14.9220    0.3770 C.3   116  ILE116      0.0019
    164  CD1        9.3590   16.2160    3.2180 C.3   116  ILE116      0.0001
    165  N          8.5430   12.2870   -4.2830 N.3   118  SER118     -0.1202
    166  CA         9.7000   11.4470   -4.6330 C.3   118  SER118      0.2020
    167  C          9.5030   10.7360   -5.9570 C.2   118  SER118      0.2619
    168  O          8.3770   10.4890   -6.3670 O.2   118  SER118     -0.2717
    169  CB         9.6000   10.3750   -3.5480 C.3   118  SER118      0.2103
    170  OG        10.2090    9.1830   -3.8720 O.3   118  SER118     -0.2182
    171  N         10.5660   10.3920   -6.6490 N.am  119  SER119     -0.1937
    172  CA        10.3450    9.7180   -7.9140 C.3   119  SER119      0.2055
    173  C         10.0330    8.2310   -7.6950 C.2   119  SER119      0.2643
    174  O          9.7190    7.5150   -8.6400 O.2   119  SER119     -0.2714
    175  CB        11.5710    9.8450   -8.8290 C.3   119  SER119      0.2130
    176  OG        12.6900    9.3200   -8.1320 O.3   119  SER119     -0.2179
    177  N         10.1110    7.7420   -6.4620 N.am  120  ASN120     -0.1971
    178  CA         9.8250    6.3240   -6.2600 C.3   120  ASN120      0.1688
    179  C          8.5090    5.9750   -5.6000 C.2   120  ASN120      0.2292
    180  O          8.2720    4.8010   -5.3330 O.2   120  ASN120     -0.2864
    181  CB        10.9080    5.7780   -5.3220 C.3   120  ASN120      0.1181
    182  CG        12.2750    5.7580   -6.0030 C.2   120  ASN120      0.2629
    183  OD1       12.3910    5.7660   -7.2300 O.2   120  ASN120     -0.2716
    184  ND2       13.3280    5.7240   -5.2090 N.am  120  ASN120     -0.0877
    185  N          5.6600   18.4580    6.0990 N.3   127  ARG127     -0.1245
    186  CA         6.3530   18.8020    7.3310 C.3   127  ARG127      0.1563
    187  C          5.9000   20.2260    7.6180 C.2   127  ARG127      0.2260
    188  O          6.0030   21.0820    6.7580 O.2   127  ARG127     -0.2867
    189  CB         7.8620   18.6590    7.3760 C.3   127  ARG127      0.0307
    190  CG         8.3050   17.2410    6.9050 C.3   127  ARG127      0.0489
    191  CD         9.8110   17.1290    7.0680 C.3   127  ARG127      0.2205
    192  NE        10.2150   16.5400    8.3520 N.pl3 127  ARG127     -0.0865
    193  CZ        11.5050   16.4910    8.6820 C.cat 127  ARG127      0.5346
    194  NH1       12.4530   16.9890    7.8760 N.pl3 127  ARG127      0.1354
    195  NH2       11.8350   15.9480    9.8040 N.pl3 127  ARG127      0.1354
    196  N          6.2370   23.5120   10.1320 N.3   129  TYR129     -0.1241
    197  CA         7.1180   24.1500   11.0900 C.3   129  TYR129      0.1605
    198  C          6.5240   25.4910   11.4980 C.2   129  TYR129      0.2264
    199  O          5.7460   26.0810   10.7630 O.2   129  TYR129     -0.2867
    200  CB         8.4340   24.4230   10.3360 C.3   129  TYR129      0.0534
    201  CG         9.3640   23.2890    9.8940 C.ar  129  TYR129     -0.0201
    202  CD1        9.0410   22.4880    8.8140 C.ar  129  TYR129     -0.0009
    203  CD2       10.5780   23.1000   10.5650 C.ar  129  TYR129     -0.0009
    204  CE1        9.9270   21.4620    8.4190 C.ar  129  TYR129      0.0417
    205  CE2       11.4690   22.1020   10.1750 C.ar  129  TYR129      0.0417
    206  CZ        11.1150   21.2890    9.0960 C.ar  129  TYR129      0.1957
    207  OH        11.9830   20.3340    8.6910 O.3   129  TYR129     -0.2866
@<TRIPOS>BOND
     1   124   122    1
     2   175   176    1
     3   175   172    1
     4   122   123    1
     5   122   119    1
     6   174   173    2
     7   172   173    1
     8   172   171    1
     9   173   177   am
    10   118   119    1
    11   118   116   am
    12   115   116    1
    13   115   114    1
    14   119   120    1
    15   183   182    2
    16   116   117    2
    17   108   107    2
    18   171   167   am
    19   177   178    1
    20   114   111   am
    21   112   111    2
    22   168   167    2
    23   121   120    2
    24   120   125   am
    25   178   179    1
    26   178   181    1
    27   111   110    1
    28   182   181    1
    29   182   184   am
    30   167   166    1
    31   105   106    1
    32   107   106    1
    33   101   100    2
    34   179   180    2
    35   100    99    1
    36   125   126    1
    37    98    99    1
    38   109   110    1
    39   110   113    1
    40   128   127    2
    41    99   102    1
    42   127   126    1
    43   166   165    1
    44   166   169    1
    45   126   129    1
    46    90    91    2
    47    90    89    1
    48   170   169    1
    49    83    84    2
    50    83    82    1
    51   102   104    1
    52   102   103    1
    53    88    89    1
    54    89    92    1
    55    82    85    1
    56    82    81    1
    57   130   131    1
    58    85    86    1
    59    85    87    1
    60    95    93   ar
    61    95    97   ar
    62    92    93    1
    63   133   132    2
    64   132   131    1
    65    93    94   ar
    66   159   160    2
    67   159   158    1
    68   131   134    1
    69    97    96   ar
    70    32    31    1
    71    32    33    1
    72    32    35    1
    73   137   139   ar
    74   137   135   ar
    75    34    33    2
    76    20    18   ar
    77    20    22   ar
    78   158   157    1
    79   158   161    1
    80   139   140   ar
    81   141   142    1
    82   134   135    1
    83   135   136   ar
    84    96    94   ar
    85    18    17   ar
    86   140   138   ar
    87   144   143    2
    88   163   161    1
    89    22    21   ar
    90   136   138   ar
    91   161   162    1
    92   143   142    1
    93   142   145    1
    94    15    14    2
    95    68    66    1
    96    17    16    1
    97    17    19   ar
    98   146   145    1
    99   146   147    1
   100    75    76    2
   101    75    74    1
   102    21    19   ar
   103    13    16    1
   104    13    14    1
   105    13    12    1
   106   162   164    1
   107    66    65    1
   108   147   148    1
   109    14    23   am
   110    67    65    1
   111    77    74    1
   112    77    78    1
   113    74    73    1
   114    36    37    1
   115   152   151    1
   116   152   153    2
   117    26    25    2
   118   155   154    1
   119    43    41    1
   120    65    62    1
   121    25    24    1
   122    61    62    1
   123   151   154    1
   124   151   150    1
   125    79    78   ar
   126    23    24    1
   127   148   149    1
   128    78    80   ar
   129    24    27    1
   130    37    40    1
   131    37    38    1
   132    41    40    1
   133    41    42    1
   134   154   156    1
   135    62    63    1
   136    38    39    2
   137    64    63    2
   138    63    69   am
   139    30    28    1
   140    27    28    1
   141     4     3    2
   142    28    29    1
   143    69    70    1
   144     9     7   ar
   145     9    11   ar
   146     7     6   ar
   147   185   186    1
   148     3     2    1
   149     2     1    1
   150     2     5    1
   151    59    58    2
   152    70    71    1
   153   188   187    2
   154   190   191    1
   155   190   189    1
   156    11    10   ar
   157   191   192    1
   158     6     5    1
   159     6     8   ar
   160    58    60   am
   161    58    57    1
   162   186   189    1
   163   186   187    1
   164    71    72    2
   165    50    49    1
   166   194   193    1
   167    10     8   ar
   168   192   193    2
   169   204   202   ar
   170   204   206   ar
   171    57    56    1
   172   193   195    1
   173   207   206    1
   174   202   201   ar
   175    49    51    1
   176    49    48    1
   177    56    53    1
   178   206   205   ar
   179    48    45    1
   180   201   200    1
   181   201   203   ar
   182   196   197    1
   183   205   203   ar
   184    54    53    1
   185    54    55    2
   186   200   197    1
   187    53    52    1
   188   199   198    2
   189    45    46    1
   190    45    44    1
   191   197   198    1
   192    46    47    2
