@<TRIPOS>MOLECULE
tmp/1mdlA00.pdb
 106 98 0 0 0
SMALL
GASTEIGER

@<TRIPOS>ATOM
      1  N         43.9520    7.6570   22.2950 N.3    16  LEU16      -0.1245
      2  CA        42.6770    8.2220   22.6390 C.3    16  LEU16       0.1561
      3  C         42.7030    8.6460   24.0910 C.2    16  LEU16       0.2260
      4  O         43.1200    7.8830   24.9700 O.2    16  LEU16      -0.2867
      5  CB        41.5940    7.1530   22.5100 C.3    16  LEU16       0.0270
      6  CG        41.4710    6.7240   21.0620 C.3    16  LEU16       0.0019
      7  CD1       40.4900    5.5440   20.9520 C.3    16  LEU16       0.0001
      8  CD2       40.9430    7.9110   20.2720 C.3    16  LEU16       0.0001
      9  N         38.5310    3.1730   24.2960 N.3    20  VAL20      -0.1245
     10  CA        37.1800    2.6850   24.1250 C.3    20  VAL20       0.1561
     11  C         37.1040    1.2130   24.4330 C.2    20  VAL20       0.2260
     12  O         37.7580    0.4070   23.7750 O.2    20  VAL20      -0.2867
     13  CB        36.5800    2.8580   22.7510 C.3    20  VAL20       0.0252
     14  CG1       37.7050    2.7060   21.7720 C.3    20  VAL20       0.0019
     15  CG2       35.6400    1.6770   22.5120 C.3    20  VAL20       0.0019
     16  N         35.3130   -2.4110   24.5610 N.3    22  THR22      -0.1218
     17  CA        34.4790   -3.1190   23.6180 C.3    22  THR22       0.1862
     18  C         34.3120   -4.5320   24.1340 C.2    22  THR22       0.2287
     19  O         34.8960   -4.8310   25.1800 O.2    22  THR22      -0.2866
     20  CB        35.1250   -3.0610   22.2110 C.3    22  THR22       0.1770
     21  OG1       36.1630   -4.0120   22.1280 O.3    22  THR22      -0.2211
     22  CG2       35.7020   -1.6620   21.9790 C.3    22  THR22       0.0375
     23  N         40.5300   -0.4930   23.2100 N.3    27  VAL27      -0.1245
     24  CA        41.3460    0.0510   22.1220 C.3    27  VAL27       0.1561
     25  C         41.8400    1.4540   22.4960 C.2    27  VAL27       0.2260
     26  O         41.0040    2.2540   22.8560 O.2    27  VAL27      -0.2867
     27  CB        40.8870   -0.1700   20.7010 C.3    27  VAL27       0.0252
     28  CG1       39.4580   -0.6740   20.6270 C.3    27  VAL27       0.0019
     29  CG2       40.9590    1.1090   19.9200 C.3    27  VAL27       0.0019
     30  N         43.9460    3.3950   20.6700 N.3    29  THR29      -0.1203
     31  CA        44.3860    4.2850   19.6020 C.3    29  THR29       0.1994
     32  C         43.4170    4.2640   18.4290 C.2    29  THR29       0.2618
     33  O         42.7110    3.2480   18.3230 O.2    29  THR29      -0.2717
     34  CB        45.8010    3.9440   19.1340 C.3    29  THR29       0.1784
     35  OG1       45.6810    2.6270   18.6510 O.3    29  THR29      -0.2211
     36  CG2       46.7220    3.9860   20.3680 C.3    29  THR29       0.0376
     37  N         43.4410    5.3340   17.6090 N.am   30  ALA30      -0.1966
     38  CA        42.6010    5.5120   16.4280 C.3    30  ALA30       0.1713
     39  C         43.4690    5.6090   15.2280 C.2    30  ALA30       0.2458
     40  O         44.4290    6.3350   15.2820 O.2    30  ALA30      -0.2730
     41  CB        41.7610    6.7650   16.4710 C.3    30  ALA30       0.0333
     42  N         43.1380    4.8820   14.1870 N.am   31  PRO31      -0.2727
     43  CA        43.8170    4.8450   12.9380 C.3    31  PRO31       0.1402
     44  C         43.2830    5.9350   12.0470 C.2    31  PRO31       0.2269
     45  O         42.1610    5.8240   11.5970 O.2    31  PRO31      -0.2865
     46  CB        43.4320    3.4830   12.3310 C.3    31  PRO31       0.0296
     47  CG        42.2850    2.9160   13.1640 C.3    31  PRO31       0.0237
     48  CD        42.0620    3.8590   14.3390 C.3    31  PRO31       0.0939
     49  N         38.8120    8.5760    9.4360 N.3    50  PHE50      -0.1241
     50  CA        38.9470    7.6070   10.5010 C.3    50  PHE50       0.1605
     51  C         38.8280    6.2650    9.7780 C.2    50  PHE50       0.2264
     52  O         37.8590    6.0530    9.0590 O.2    50  PHE50      -0.2867
     53  CB        37.6850    7.7400   11.3550 C.3    50  PHE50       0.0534
     54  CG        37.6270    6.7000   12.4930 C.ar   50  PHE50      -0.0203
     55  CD1       38.7480    6.3640   13.2620 C.ar   50  PHE50      -0.0042
     56  CD2       36.3840    6.2020   12.8970 C.ar   50  PHE50      -0.0042
     57  CE1       38.6600    5.4860   14.3490 C.ar   50  PHE50      -0.0003
     58  CE2       36.2680    5.3020   13.9700 C.ar   50  PHE50      -0.0003
     59  CZ        37.4090    4.9840   14.7130 C.ar   50  PHE50      -0.0000
     60  N         38.6090    3.2200   11.4220 N.3    52  TYR52      -0.1241
     61  CA        37.9240    2.1930   12.1690 C.3    52  TYR52       0.1605
     62  C         38.8490    1.1150   12.6390 C.2    52  TYR52       0.2264
     63  O         39.0220    0.9230   13.8410 O.2    52  TYR52      -0.2867
     64  CB        36.7140    1.5590   11.4370 C.3    52  TYR52       0.0534
     65  CG        35.6090    2.5290   11.1570 C.ar   52  TYR52      -0.0201
     66  CD1       35.6950    3.2780    9.9850 C.ar   52  TYR52      -0.0009
     67  CD2       34.5140    2.7280   12.0040 C.ar   52  TYR52      -0.0009
     68  CE1       34.6930    4.1780    9.6380 C.ar   52  TYR52       0.0417
     69  CE2       33.5380    3.6930   11.7120 C.ar   52  TYR52       0.0417
     70  CZ        33.6410    4.4090   10.5220 C.ar   52  TYR52       0.1957
     71  OH        32.7260    5.3620   10.1990 O.3    52  TYR52      -0.2866
     72  N         27.5490    2.6790   25.6620 N.3   164  ARG164     -0.1245
     73  CA        27.2280    1.5220   24.8210 C.3   164  ARG164      0.1563
     74  C         26.7990    0.3600   25.7130 C.2   164  ARG164      0.2260
     75  O         27.4610    0.0650   26.7290 O.2   164  ARG164     -0.2867
     76  CB        28.4190    0.8990   24.1160 C.3   164  ARG164      0.0307
     77  CG        29.3720    1.8640   23.4810 C.3   164  ARG164      0.0489
     78  CD        30.0870    1.0410   22.4400 C.3   164  ARG164      0.2205
     79  NE        30.8350    1.9220   21.5880 N.pl3 164  ARG164     -0.0865
     80  CZ        31.7160    1.5250   20.6690 C.cat 164  ARG164      0.5346
     81  NH1       31.9530    0.2190   20.3740 N.pl3 164  ARG164      0.1354
     82  NH2       32.2930    2.5210   20.0180 N.pl3 164  ARG164      0.1354
     83  N         30.8930   11.5150   15.2070 N.3   296  LEU296     -0.1245
     84  CA        32.3820   11.7750   15.0760 C.3   296  LEU296      0.1561
     85  C         32.6890   13.0840   14.3380 C.2   296  LEU296      0.2260
     86  O         31.7310   13.8280   14.1210 O.2   296  LEU296     -0.2867
     87  CB        33.0640   10.6040   14.3130 C.3   296  LEU296      0.0270
     88  CG        32.9980    9.2180   15.0090 C.3   296  LEU296      0.0019
     89  CD1       33.7560    8.2840   14.0840 C.3   296  LEU296      0.0001
     90  CD2       33.6560    9.1320   16.3710 C.3   296  LEU296      0.0001
     91  N         33.4040   13.1080   20.6810 N.3   317  LEU317     -0.1245
     92  CA        34.2710   11.9330   20.6950 C.3   317  LEU317      0.1561
     93  C         35.4980   12.4170   20.0400 C.2   317  LEU317      0.2260
     94  O         35.5450   12.5220   18.8310 O.2   317  LEU317     -0.2867
     95  CB        33.7240   10.6760   19.9650 C.3   317  LEU317      0.0270
     96  CG        34.2280    9.3520   20.5650 C.3   317  LEU317      0.0019
     97  CD1       33.4380    8.1850   19.9650 C.3   317  LEU317      0.0001
     98  CD2       35.6910    9.2460   20.1580 C.3   317  LEU317      0.0001
     99  N         38.6010   11.9930   18.4170 N.3   319  LEU319     -0.1245
    100  CA        39.5630   11.0880   17.8430 C.3   319  LEU319      0.1561
    101  C         40.8910   11.7310   17.5840 C.2   319  LEU319      0.2260
    102  O         41.8850   11.0650   17.7790 O.2   319  LEU319     -0.2867
    103  CB        39.0600   10.6750   16.4590 C.3   319  LEU319      0.0270
    104  CG        37.7730    9.8560   16.4500 C.3   319  LEU319      0.0019
    105  CD1       37.4570    9.4020   15.0270 C.3   319  LEU319      0.0001
    106  CD2       37.9130    8.6230   17.3240 C.3   319  LEU319      0.0001
@<TRIPOS>BOND
     1    52    51    2
     2    49    50    1
     3    68    66   ar
     4    68    70   ar
     5    51    50    1
     6    66    65   ar
     7    71    70    1
     8    50    53    1
     9    70    69   ar
    10    65    64    1
    11    65    67   ar
    12    53    54    1
    13    60    61    1
    14    64    61    1
    15    45    44    2
    16    69    67   ar
    17    44    43    1
    18    61    62    1
    19    46    43    1
    20    46    47    1
    21    54    56   ar
    22    54    55   ar
    23    62    63    2
    24    56    58   ar
    25    43    42    1
    26    47    48    1
    27    55    57   ar
    28    58    59   ar
    29    89    88    1
    30    86    85    2
    31    42    48    1
    32    42    39   am
    33    87    88    1
    34    87    84    1
    35    85    84    1
    36    57    59   ar
    37    88    90    1
    38   105   104    1
    39    84    83    1
    40    39    40    2
    41    39    38    1
    42    38    41    1
    43    38    37    1
    44   104   103    1
    45   104   106    1
    46   103   100    1
    47   101   102    2
    48   101   100    1
    49    37    32   am
    50   100    99    1
    51    33    32    2
    52    32    31    1
    53    35    34    1
    54    94    93    2
    55    34    31    1
    56    34    36    1
    57    31    30    1
    58    29    27    1
    59    95    96    1
    60    95    92    1
    61    97    96    1
    62    82    80    1
    63    93    92    1
    64    98    96    1
    65     8     6    1
    66    81    80    1
    67    28    27    1
    68    80    79    2
    69    91    92    1
    70    27    24    1
    71     7     6    1
    72     6     5    1
    73    79    78    1
    74    14    13    1
    75    22    20    1
    76    24    25    1
    77    24    23    1
    78    21    20    1
    79    20    17    1
    80     1     2    1
    81    78    77    1
    82    25    26    2
    83     5     2    1
    84    15    13    1
    85     2     3    1
    86    13    10    1
    87    77    76    1
    88    17    18    1
    89    17    16    1
    90    12    11    2
    91     3     4    2
    92    76    73    1
    93    10     9    1
    94    10    11    1
    95    18    19    2
    96    73    72    1
    97    73    74    1
    98    74    75    2
