@<TRIPOS>MOLECULE
tmp/1mdtB00.pdb
 221 216 0 0 0
SMALL
GASTEIGER

@<TRIPOS>ATOM
      1  N        -41.7540   14.8930   59.5980 N.3    20  TYR20      -0.1227
      2  CA       -42.3240   15.4470   60.8180 C.3    20  TYR20       0.1736
      3  C        -43.8250   15.3810   60.8820 C.2    20  TYR20       0.2595
      4  O        -44.4940   15.4720   59.8630 O.2    20  TYR20      -0.2718
      5  CB       -41.9380   16.9040   60.8790 C.3    20  TYR20       0.0548
      6  CG       -40.4780   17.0230   60.9600 C.ar   20  TYR20      -0.0200
      7  CD1      -39.8360   16.8410   62.1700 C.ar   20  TYR20      -0.0009
      8  CD2      -39.7100   17.2600   59.8360 C.ar   20  TYR20      -0.0009
      9  CE1      -38.4450   16.8770   62.2640 C.ar   20  TYR20       0.0417
     10  CE2      -38.3160   17.3010   59.9180 C.ar   20  TYR20       0.0417
     11  CZ       -37.6870   17.1020   61.1570 C.ar   20  TYR20       0.1957
     12  OH       -36.3040   17.1280   61.2830 O.3    20  TYR20      -0.2866
     13  N        -44.3610   15.3660   62.0920 N.am   21  HIS21      -0.1961
     14  CA       -45.7970   15.3980   62.2900 C.3    21  HIS21       0.1787
     15  C        -46.1520   16.4370   63.3650 C.2    21  HIS21       0.2621
     16  O        -45.5840   16.3640   64.4240 O.2    21  HIS21      -0.2715
     17  CB       -46.2760   14.0030   62.7070 C.3    21  HIS21       0.0785
     18  CG       -47.7610   13.8770   62.9640 C.ar   21  HIS21       0.0821
     19  ND1      -48.6840   13.6550   61.9650 N.ar   21  HIS21      -0.2267
     20  CD2      -48.4600   13.8830   64.1220 C.ar   21  HIS21       0.1154
     21  CE1      -49.8790   13.5180   62.4960 C.ar   21  HIS21       0.1986
     22  NE2      -49.7670   13.6500   63.8090 N.ar   21  HIS21      -0.2212
     23  N        -47.0340   17.4170   63.0800 N.am   22  GLY22      -0.1940
     24  CA       -47.5000   18.3840   64.0750 C.3    22  GLY22       0.2014
     25  C        -48.4720   17.7320   65.0460 C.2    22  GLY22       0.2640
     26  O        -49.5180   17.2240   64.6440 O.2    22  GLY22      -0.2714
     27  N        -48.1740   17.8190   66.3410 N.am   23  THR23      -0.1936
     28  CA       -48.9110   17.1540   67.3880 C.3    23  THR23       0.2028
     29  C        -49.7240   18.0310   68.3170 C.2    23  THR23       0.2642
     30  O        -49.2790   19.0810   68.7760 O.2    23  THR23      -0.2714
     31  CB       -47.9230   16.3060   68.1960 C.3    23  THR23       0.1808
     32  OG1      -47.2210   15.4760   67.2800 O.3    23  THR23      -0.2208
     33  CG2      -48.6250   15.3910   69.1860 C.3    23  THR23       0.0379
     34  N        -50.9010   17.5500   68.6740 N.am   24  LYS24      -0.1977
     35  CA       -51.6960   18.3860   69.4910 C.3    24  LYS24       0.1596
     36  C        -51.3470   18.3460   70.9270 C.2    24  LYS24       0.2287
     37  O        -50.6690   17.4180   71.4110 O.2    24  LYS24      -0.2864
     38  CB       -53.1810   18.0940   69.3150 C.3    24  LYS24       0.0298
     39  CG       -53.8630   19.1710   68.4230 C.3    24  LYS24       0.0038
     40  CD       -53.3410   19.1500   67.0150 C.3    24  LYS24       0.0206
     41  CE       -54.3490   19.7490   66.0250 C.3    24  LYS24       0.1093
     42  NZ       -54.3520   19.1880   64.6070 N.3    24  LYS24      -0.1314
     43  N        -50.7450   15.3990   73.3410 N.3    27  TYR27      -0.1241
     44  CA       -50.3970   14.1440   72.6150 C.3    27  TYR27       0.1605
     45  C        -48.9200   13.9890   72.3560 C.2    27  TYR27       0.2264
     46  O        -48.4270   12.9180   72.0370 O.2    27  TYR27      -0.2867
     47  CB       -51.1540   14.0630   71.3060 C.3    27  TYR27       0.0534
     48  CG       -52.6450   13.9410   71.4650 C.ar   27  TYR27      -0.0201
     49  CD1      -53.4420   15.0710   71.5820 C.ar   27  TYR27      -0.0009
     50  CD2      -53.2640   12.6900   71.4840 C.ar   27  TYR27      -0.0009
     51  CE1      -54.8230   14.9590   71.7100 C.ar   27  TYR27       0.0417
     52  CE2      -54.6210   12.5540   71.6110 C.ar   27  TYR27       0.0417
     53  CZ       -55.4030   13.6960   71.7200 C.ar   27  TYR27       0.1957
     54  OH       -56.7700   13.5790   71.8180 O.3    27  TYR27      -0.2866
     55  N        -47.5820   10.9700   74.3700 N.3    30  SER30      -0.1202
     56  CA       -48.1230    9.6680   74.0320 C.3    30  SER30       0.2020
     57  C        -47.7720    9.2260   72.6240 C.2    30  SER30       0.2618
     58  O        -47.7290    8.0470   72.3460 O.2    30  SER30      -0.2717
     59  CB       -49.6420    9.6560   74.2000 C.3    30  SER30       0.2103
     60  OG       -50.3080   10.5800   73.3550 O.3    30  SER30      -0.2182
     61  N        -47.6180   10.2010   71.7180 N.am   31  ILE31      -0.1979
     62  CA       -47.3090    9.8790   70.3550 C.3    31  ILE31       0.1595
     63  C        -45.8970    9.3200   70.2240 C.2    31  ILE31       0.2287
     64  O        -45.5960    8.6410   69.2460 O.2    31  ILE31      -0.2864
     65  CB       -47.5440   11.0920   69.4170 C.3    31  ILE31       0.0276
     66  CG1      -47.7410   10.5420   67.9700 C.3    31  ILE31       0.0022
     67  CG2      -46.4160   12.0940   69.5760 C.3    31  ILE31       0.0022
     68  CD1      -48.1980   11.4480   66.8640 C.3    31  ILE31       0.0001
     69  N        -45.6810    5.5150   69.9290 N.3    34  GLY34      -0.1210
     70  CA       -46.0330    4.7860   68.7200 C.3    34  GLY34       0.1956
     71  C        -47.1430    5.4510   67.8930 C.2    34  GLY34       0.2612
     72  O        -47.9790    6.1790   68.4850 O.2    34  GLY34      -0.2717
     73  N        -47.0990    5.2270   66.5470 N.am   35  ILE35      -0.1965
     74  CA       -48.1100    5.6860   65.5840 C.3    35  ILE35       0.1727
     75  C        -49.1770    4.5870   65.4480 C.2    35  ILE35       0.2616
     76  O        -48.8890    3.4030   65.2470 O.2    35  ILE35      -0.2715
     77  CB       -47.5260    6.0220   64.1830 C.3    35  ILE35       0.0290
     78  CG1      -46.3660    7.0260   64.2870 C.3    35  ILE35       0.0022
     79  CG2      -48.6510    6.5730   63.2970 C.3    35  ILE35       0.0023
     80  CD1      -46.6990    8.4290   64.8260 C.3    35  ILE35       0.0001
     81  N        -50.4300    4.9930   65.6090 N.am   36  GLN36      -0.1977
     82  CA       -51.5900    4.0780   65.5550 C.3    36  GLN36       0.1601
     83  C        -52.8580    4.8440   65.1020 C.2    36  GLN36       0.2287
     84  O        -53.0830    6.0270   65.4580 O.2    36  GLN36      -0.2864
     85  CB       -51.7980    3.4440   66.9630 C.3    36  GLN36       0.0394
     86  CG       -53.0030    2.4880   67.1780 C.3    36  GLN36       0.0908
     87  CD       -52.6570    1.0170   66.9830 C.2    36  GLN36       0.2608
     88  OE1      -51.5340    0.5740   67.3050 O.2    36  GLN36      -0.2717
     89  NE2      -53.6310    0.2320   66.4780 N.am   36  GLN36      -0.0878
     90  N        -56.3390    6.4070   64.9890 N.3    38  PRO38      -0.2116
     91  CA       -57.3250    6.7470   66.0060 C.3    38  PRO38       0.1372
     92  C        -58.5550    5.8080   65.8720 C.2    38  PRO38       0.2244
     93  O        -58.8920    5.3700   64.7630 O.2    38  PRO38      -0.2868
     94  CB       -57.6420    8.1900   65.6510 C.3    38  PRO38       0.0268
     95  CG       -56.2880    8.7070   65.2480 C.3    38  PRO38       0.0207
     96  CD       -55.9180    7.6470   64.2830 C.3    38  PRO38       0.0892
     97  N        -61.7460   10.9130   61.3120 N.3    42  THR42      -0.1203
     98  CA       -61.4860   10.7320   59.8810 C.3    42  THR42       0.1994
     99  C        -60.1960    9.9930   59.6090 C.2    42  THR42       0.2618
    100  O        -59.8870    9.7280   58.4510 O.2    42  THR42      -0.2717
    101  CB       -61.4770   12.0220   59.0770 C.3    42  THR42       0.1784
    102  OG1      -60.5940   12.9520   59.6840 O.3    42  THR42      -0.2211
    103  CG2      -62.8590   12.6010   58.9680 C.3    42  THR42       0.0376
    104  N        -59.4500    9.6670   60.6730 N.am   43  GLN43      -0.1965
    105  CA       -58.1880    8.9250   60.5610 C.3    43  GLN43       0.1733
    106  C        -57.3320    9.3420   59.3700 C.2    43  GLN43       0.2616
    107  O        -57.0140    8.5050   58.5140 O.2    43  GLN43      -0.2715
    108  CB       -58.4860    7.4370   60.4860 C.3    43  GLN43       0.0408
    109  CG       -59.2120    7.0470   61.7180 C.3    43  GLN43       0.0908
    110  CD       -60.1350    5.8950   61.4520 C.2    43  GLN43       0.2608
    111  OE1      -60.8220    5.8740   60.4360 O.2    43  GLN43      -0.2717
    112  NE2      -60.1250    4.8970   62.3360 N.am   43  GLN43      -0.0878
    113  N        -57.0550   10.6550   59.3030 N.am   44  GLY44      -0.1955
    114  CA       -56.2490   11.2030   58.2360 C.3    44  GLY44       0.1869
    115  C        -57.0060   11.7980   57.0670 C.2    44  GLY44       0.2309
    116  O        -56.4650   12.6870   56.4170 O.2    44  GLY44      -0.2863
    117  N        -54.7670    7.7990   56.2170 N.3    52  GLY52      -0.1210
    118  CA       -53.4470    7.2630   56.4660 C.3    52  GLY52       0.1956
    119  C        -52.8610    8.2600   57.4320 C.2    52  GLY52       0.2612
    120  O        -53.4930    9.2730   57.7410 O.2    52  GLY52      -0.2717
    121  N        -51.6820    7.9770   57.9520 N.am   53  PHE53      -0.1962
    122  CA       -50.9700    8.8620   58.8740 C.3    53  PHE53       0.1771
    123  C        -50.2210    9.9060   57.9840 C.2    53  PHE53       0.2620
    124  O        -49.5290    9.5440   57.0190 O.2    53  PHE53      -0.2715
    125  CB       -49.9790    7.9990   59.6620 C.3    53  PHE53       0.0574
    126  CG       -49.1970    8.7730   60.6530 C.ar   53  PHE53      -0.0200
    127  CD1      -49.8360    9.4550   61.6610 C.ar   53  PHE53      -0.0042
    128  CD2      -47.8230    8.9150   60.5210 C.ar   53  PHE53      -0.0042
    129  CE1      -49.1200   10.2750   62.5130 C.ar   53  PHE53      -0.0003
    130  CE2      -47.1010    9.7500   61.3900 C.ar   53  PHE53      -0.0003
    131  CZ       -47.7490   10.4200   62.3630 C.ar   53  PHE53      -0.0000
    132  N        -50.3300   11.1840   58.3010 N.am   54  TYR54      -0.1960
    133  CA       -49.7090   12.2430   57.5060 C.3    54  TYR54       0.1771
    134  C        -48.4810   12.8530   58.1330 C.2    54  TYR54       0.2620
    135  O        -48.4930   13.1280   59.2980 O.2    54  TYR54      -0.2715
    136  CB       -50.7420   13.3480   57.3350 C.3    54  TYR54       0.0574
    137  CG       -51.7720   12.9630   56.3700 C.ar   54  TYR54      -0.0198
    138  CD1      -52.6710   11.9490   56.6420 C.ar   54  TYR54      -0.0009
    139  CD2      -51.7680   13.5020   55.0760 C.ar   54  TYR54      -0.0009
    140  CE1      -53.5230   11.4890   55.6530 C.ar   54  TYR54       0.0417
    141  CE2      -52.6030   13.0630   54.1210 C.ar   54  TYR54       0.0417
    142  CZ       -53.4610   12.0550   54.3810 C.ar   54  TYR54       0.1957
    143  OH       -54.2730   11.6200   53.3540 O.3    54  TYR54      -0.2866
    144  N        -47.4600   13.1500   57.3460 N.am   55  SER55      -0.1936
    145  CA       -46.2420   13.7620   57.8650 C.3    55  SER55       0.2055
    146  C        -45.8220   14.7370   56.7930 C.2    55  SER55       0.2643
    147  O        -46.4660   14.8370   55.7580 O.2    55  SER55      -0.2714
    148  CB       -45.1490   12.6920   58.1280 C.3    55  SER55       0.2130
    149  OG       -45.0060   11.6890   57.1370 O.3    55  SER55      -0.2179
    150  N        -44.7450   15.4390   56.9840 N.am   56  THR56      -0.1950
    151  CA       -44.2860   16.3960   55.9650 C.3    56  THR56       0.1897
    152  C        -42.7490   16.4550   56.0800 C.2    56  THR56       0.2313
    153  O        -42.1940   16.0110   57.0620 O.2    56  THR56      -0.2863
    154  CB       -44.9500   17.8430   56.1900 C.3    56  THR56       0.1794
    155  OG1      -44.4420   18.7670   55.2200 O.3    56  THR56      -0.2208
    156  CG2      -44.7090   18.4050   57.6700 C.3    56  THR56       0.0378
    157  N        -45.1360   21.1550   59.7340 N.3    62  ALA62      -0.1245
    158  CA       -45.6780   20.2520   60.7280 C.3    62  ALA62       0.1562
    159  C        -46.2780   21.1400   61.8650 C.2    62  ALA62       0.2260
    160  O        -47.4230   20.9780   62.2500 O.2    62  ALA62      -0.2867
    161  CB       -44.5400   19.3390   61.2920 C.3    62  ALA62       0.0290
    162  N        -49.7890   22.1220   62.2710 N.3    65  TYR65      -0.1241
    163  CA       -50.8420   21.1560   62.6600 C.3    65  TYR65       0.1605
    164  C        -50.8650   20.9500   64.2000 C.2    65  TYR65       0.2264
    165  O        -51.5480   20.0630   64.6720 O.2    65  TYR65      -0.2867
    166  CB       -50.6450   19.7680   62.0140 C.3    65  TYR65       0.0534
    167  CG       -50.9260   19.7390   60.5140 C.ar   65  TYR65      -0.0201
    168  CD1      -52.2390   19.5520   60.0120 C.ar   65  TYR65      -0.0009
    169  CD2      -49.8650   19.8720   59.5940 C.ar   65  TYR65      -0.0009
    170  CE1      -52.4650   19.4930   58.6730 C.ar   65  TYR65       0.0417
    171  CE2      -50.0700   19.8250   58.2530 C.ar   65  TYR65       0.0417
    172  CZ       -51.3560   19.6320   57.7780 C.ar   65  TYR65       0.1957
    173  OH       -51.4760   19.5510   56.4100 O.3    65  TYR65      -0.2866
    174  N        -57.3630   22.0930   68.5910 N.3    69  ASN69      -0.1240
    175  CA       -58.4980   22.1220   67.6760 C.3    69  ASN69       0.1653
    176  C        -59.7670   22.7760   68.1890 C.2    69  ASN69       0.2266
    177  O        -60.5580   23.3240   67.4260 O.2    69  ASN69      -0.2867
    178  CB       -58.7990   20.7160   67.1390 C.3    69  ASN69       0.1155
    179  CG       -59.0580   20.7430   65.6050 C.2    69  ASN69       0.2627
    180  OD1      -60.1440   20.3260   65.1340 O.2    69  ASN69      -0.2716
    181  ND2      -58.0830   21.2980   64.8280 N.am   69  ASN69      -0.0877
    182  N        -45.6490   16.5990   51.3280 N.3   148  GLU148     -0.1245
    183  CA       -46.5590   15.9800   52.2880 C.3   148  GLU148      0.1567
    184  C        -46.4110   14.4550   52.1090 C.2   148  GLU148      0.2260
    185  O        -46.2420   13.9960   50.9660 O.2   148  GLU148     -0.2867
    186  CB       -47.9740   16.3430   51.9140 C.3   148  GLU148      0.0388
    187  CG       -49.0260   15.4740   52.5230 C.3   148  GLU148      0.1160
    188  CD       -50.4370   15.8020   52.0600 C.2   148  GLU148      0.3649
    189  OE1      -50.6660   15.6060   50.8490 O.co2 148  GLU148     -0.2457
    190  OE2      -51.3110   16.2010   52.8910 O.co2 148  GLU148     -0.2457
    191  N        -51.6020    3.2090   57.3840 N.3   153  TRP153     -0.1241
    192  CA       -51.6980    3.1540   58.8200 C.3   153  TRP153      0.1605
    193  C        -51.0160    1.9790   59.5160 C.2   153  TRP153      0.2264
    194  O        -50.4890    2.1010   60.6250 O.2   153  TRP153     -0.2867
    195  CB       -53.1660    3.2040   59.1930 C.3   153  TRP153      0.0550
    196  CG       -53.7720    4.5860   59.4460 C.ar  153  TRP153      0.0003
    197  CD1      -54.8530    5.1340   58.8100 C.ar  153  TRP153      0.0946
    198  CD2      -53.3510    5.5370   60.4210 C.ar  153  TRP153      0.0152
    199  NE1      -55.1370    6.3780   59.3350 N.ar  153  TRP153     -0.2442
    200  CE2      -54.2420    6.6500   60.3300 C.ar  153  TRP153      0.0810
    201  CE3      -52.3240    5.5710   61.3640 C.ar  153  TRP153      0.0012
    202  CZ2      -54.1250    7.7630   61.1450 C.ar  153  TRP153      0.0191
    203  CZ3      -52.1970    6.6750   62.1770 C.ar  153  TRP153      0.0001
    204  CH2      -53.0910    7.7550   62.0700 C.ar  153  TRP153      0.0015
    205  N        -61.1380   17.5560   54.2350 N.3   434  SER434     -0.1217
    206  CA       -59.7610   17.4180   54.6830 C.3   434  SER434      0.1889
    207  C        -58.8670   18.0570   53.6100 C.2   434  SER434      0.2288
    208  O        -57.8540   18.6830   53.9150 O.2   434  SER434     -0.2866
    209  CB       -59.3740   15.9570   54.8490 C.3   434  SER434      0.2089
    210  OG       -60.1850   15.2830   55.7580 O.3   434  SER434     -0.2183
    211  N        -56.0710   24.7400   57.2690 N.3   446  ARG446     -0.1245
    212  CA       -57.2170   23.8910   57.1330 C.3   446  ARG446      0.1563
    213  C        -58.4440   24.7130   57.3920 C.2   446  ARG446      0.2260
    214  O        -58.3610   25.8400   57.9220 O.2   446  ARG446     -0.2867
    215  CB       -57.0760   22.7330   58.1170 C.3   446  ARG446      0.0307
    216  CG       -55.9940   21.6780   57.7240 C.3   446  ARG446      0.0489
    217  CD       -56.7000   20.6120   56.9260 C.3   446  ARG446      0.2205
    218  NE       -56.1450   19.2570   56.9430 N.pl3 446  ARG446     -0.0865
    219  CZ       -56.8500   18.1820   57.1720 C.cat 446  ARG446      0.5346
    220  NH1      -58.1110   18.2630   57.6010 N.pl3 446  ARG446      0.1354
    221  NH2      -56.2470   17.0240   57.0850 N.pl3 446  ARG446      0.1354
@<TRIPOS>BOND
     1   189   188   ar
     2   185   184    2
     3   182   183    1
     4   186   183    1
     5   186   187    1
     6   188   187    1
     7   188   190   ar
     8   184   183    1
     9   143   142    1
    10   207   208    2
    11   207   206    1
    12   141   142   ar
    13   141   139   ar
    14   205   206    1
    15   142   140   ar
    16   206   209    1
    17   209   210    1
    18   139   137   ar
    19   155   154    1
    20   140   138   ar
    21   147   146    2
    22   151   152    1
    23   151   154    1
    24   151   150    1
    25   152   153    2
    26   154   156    1
    27   117   118    1
    28   137   138   ar
    29   137   136    1
    30   173   172    1
    31   116   115    2
    32   118   119    1
    33   146   150   am
    34   146   145    1
    35   217   218    1
    36   217   216    1
    37   218   219    2
    38   124   123    2
    39   115   114    1
    40   221   219    1
    41   212   211    1
    42   212   213    1
    43   212   215    1
    44   149   148    1
    45   219   220    1
    46   136   133    1
    47   144   145    1
    48   144   134   am
    49   191   192    1
    50   213   214    2
    51   119   120    2
    52   119   121   am
    53   133   134    1
    54   133   132    1
    55   216   215    1
    56   172   171   ar
    57   172   170   ar
    58   145   148    1
    59   121   122    1
    60   123   132   am
    61   123   122    1
    62   134   135    2
    63   114   113    1
    64   171   169   ar
    65   100    99    2
    66   107   106    2
    67   170   168   ar
    68   197   199   ar
    69   197   196   ar
    70   192   195    1
    71   192   193    1
    72   122   125    1
    73   103   101    1
    74   101   102    1
    75   101    98    1
    76   195   196    1
    77   113   106   am
    78   199   200   ar
    79   106   105    1
    80   196   198   ar
    81   193   194    2
    82   169   167   ar
    83     1     2    1
    84    99    98    1
    85    99   104   am
    86   125   126    1
    87   157   158    1
    88     8    10   ar
    89     8     6   ar
    90     4     3    2
    91    98    97    1
    92    10    11   ar
    93   168   167   ar
    94   200   198   ar
    95   200   202   ar
    96   198   201   ar
    97   111   110    2
    98   108   105    1
    99   108   109    1
   100   167   166    1
   101   128   126   ar
   102   128   130   ar
   103   105   104    1
   104   126   127   ar
   105   158   161    1
   106   158   159    1
   107     2     5    1
   108     2     3    1
   109     5     6    1
   110     3    13   am
   111     6     7   ar
   112   202   204   ar
   113    11    12    1
   114    11     9   ar
   115   201   203   ar
   116   130   131   ar
   117   110   109    1
   118   110   112   am
   119   127   129   ar
   120   159   160    2
   121    19    21   ar
   122    19    18   ar
   123   166   163    1
   124   204   203   ar
   125    13    14    1
   126     7     9   ar
   127   162   163    1
   128    14    17    1
   129    14    15    1
   130   131   129   ar
   131    21    22   ar
   132   163   164    1
   133    17    18    1
   134    18    20   ar
   135    23    15   am
   136    23    24    1
   137    79    77    1
   138    15    16    2
   139    22    20   ar
   140    24    25    1
   141    77    78    1
   142    77    74    1
   143   164   165    2
   144    96    90    1
   145    96    95    1
   146    78    80    1
   147    42    41    1
   148    26    25    2
   149    93    92    2
   150   181   179   am
   151    90    91    1
   152    25    27   am
   153    83    84    2
   154    83    82    1
   155   180   179    2
   156    76    75    2
   157    95    94    1
   158    75    74    1
   159    75    81   am
   160    82    81    1
   161    82    85    1
   162    74    73    1
   163   179   178    1
   164    94    91    1
   165    92    91    1
   166    41    40    1
   167    27    28    1
   168    89    87   am
   169    73    71   am
   170    68    66    1
   171    85    86    1
   172    87    86    1
   173    87    88    2
   174    40    39    1
   175   178   175    1
   176    32    31    1
   177    28    31    1
   178    28    29    1
   179   177   176    2
   180   175   176    1
   181   175   174    1
   182    71    72    2
   183    71    70    1
   184    66    65    1
   185    31    33    1
   186    29    34   am
   187    29    30    2
   188    39    38    1
   189    34    35    1
   190    70    69    1
   191    64    63    2
   192    38    35    1
   193    65    67    1
   194    65    62    1
   195    35    36    1
   196    63    62    1
   197    62    61    1
   198    36    37    2
   199    47    48    1
   200    47    44    1
   201    48    50   ar
   202    48    49   ar
   203    50    52   ar
   204    49    51   ar
   205    52    53   ar
   206    51    53   ar
   207    61    57   am
   208    53    54    1
   209    46    45    2
   210    58    57    2
   211    45    44    1
   212    44    43    1
   213    57    56    1
   214    60    59    1
   215    56    59    1
   216    56    55    1
