@<TRIPOS>MOLECULE
tmp/1mduA00.pdb
 81 80 0 0 0
SMALL
GASTEIGER

@<TRIPOS>ATOM
      1  N          6.8810   15.4680   32.3060 N.3    16  LEU16      -0.1245
      2  CA         6.7900   14.4080   31.3200 C.3    16  LEU16       0.1561
      3  C          5.6230   14.6640   30.3910 C.2    16  LEU16       0.2260
      4  O          4.5920   15.1690   30.8110 O.2    16  LEU16      -0.2867
      5  CB         6.5530   13.0520   31.9960 C.3    16  LEU16       0.0270
      6  CG         7.6690   12.0830   32.3950 C.3    16  LEU16       0.0019
      7  CD1        7.0360   10.8790   33.0860 C.3    16  LEU16       0.0001
      8  CD2        8.4610   11.6320   31.1740 C.3    16  LEU16       0.0001
      9  N         -2.8020   12.5650   31.5980 N.3    31  THR31      -0.1203
     10  CA        -1.7490   12.6340   32.6160 C.3    31  THR31       0.1994
     11  C         -1.8610   11.6660   33.7760 C.2    31  THR31       0.2617
     12  O         -0.8520   11.1910   34.2790 O.2    31  THR31      -0.2717
     13  CB        -1.5460   14.0820   33.1610 C.3    31  THR31       0.1784
     14  OG1       -2.7570   14.5810   33.7520 O.3    31  THR31      -0.2211
     15  CG2       -1.1140   15.0030   32.0170 C.3    31  THR31       0.0376
     16  N         -3.0800   11.3560   34.1910 N.am   32  ASN32      -0.1974
     17  CA        -3.2780   10.4290   35.2980 C.3    32  ASN32       0.1688
     18  C         -2.9650    9.0000   34.8700 C.2    32  ASN32       0.2292
     19  O         -3.0010    8.0910   35.6870 O.2    32  ASN32      -0.2864
     20  CB        -4.7250   10.4970   35.8080 C.3    32  ASN32       0.1181
     21  CG        -5.7510   10.2270   34.7050 C.2    32  ASN32       0.2629
     22  OD1       -5.8630   10.9990   33.7570 O.2    32  ASN32      -0.2716
     23  ND2       -6.4970    9.1260   34.8270 N.am   32  ASN32      -0.0877
     24  N         -0.0720    8.2560   33.0320 N.3    34  TYR34      -0.1227
     25  CA         1.3510    8.1640   32.7320 C.3    34  TYR34       0.1736
     26  C          1.9720    6.9760   33.4630 C.2    34  TYR34       0.2596
     27  O          2.0810    6.9820   34.6880 O.2    34  TYR34      -0.2718
     28  CB         2.0810    9.4490   33.1510 C.3    34  TYR34       0.0548
     29  CG         1.9770   10.6210   32.1920 C.ar   34  TYR34      -0.0200
     30  CD1        1.0380   10.6440   31.1510 C.ar   34  TYR34      -0.0009
     31  CD2        2.7960   11.7290   32.3560 C.ar   34  TYR34      -0.0009
     32  CE1        0.9230   11.7590   30.2990 C.ar   34  TYR34       0.0417
     33  CE2        2.6960   12.8390   31.5170 C.ar   34  TYR34       0.0417
     34  CZ         1.7580   12.8480   30.4900 C.ar   34  TYR34       0.1957
     35  OH         1.6940   13.9520   29.6650 O.3    34  TYR34      -0.2866
     36  N          2.3950    5.9620   32.7170 N.am   35  GLY35      -0.1957
     37  CA         3.0030    4.8070   33.3520 C.3    35  GLY35       0.1869
     38  C          2.4320    3.4940   32.8760 C.2    35  GLY35       0.2309
     39  O          3.0670    2.4530   33.0160 O.2    35  GLY35      -0.2863
     40  N         11.7130    7.7010   35.4560 N.3   108  TYR108     -0.1227
     41  CA        10.6710    8.7090   35.3270 C.3   108  TYR108      0.1736
     42  C          9.3850    8.2550   35.9820 C.2   108  TYR108      0.2595
     43  O          8.5050    9.0710   36.2280 O.2   108  TYR108     -0.2718
     44  CB        10.3430    9.0460   33.8620 C.3   108  TYR108      0.0548
     45  CG        11.4870    9.5500   32.9950 C.ar  108  TYR108     -0.0200
     46  CD1       12.5380   10.2890   33.5290 C.ar  108  TYR108     -0.0009
     47  CD2       11.5090    9.2760   31.6270 C.ar  108  TYR108     -0.0009
     48  CE1       13.5880   10.7370   32.7250 C.ar  108  TYR108      0.0417
     49  CE2       12.5410    9.7170   30.8200 C.ar  108  TYR108      0.0417
     50  CZ        13.5780   10.4450   31.3680 C.ar  108  TYR108      0.1957
     51  OH        14.6000   10.8840   30.5510 O.3   108  TYR108     -0.2866
     52  N          9.2640    6.9650   36.2710 N.am  109  PHE109     -0.1962
     53  CA         8.0210    6.4590   36.8510 C.3   109  PHE109      0.1771
     54  C          8.1410    5.9090   38.2690 C.2   109  PHE109      0.2619
     55  O          8.3990    4.7200   38.4530 O.2   109  PHE109     -0.2715
     56  CB         7.4190    5.3980   35.9270 C.3   109  PHE109      0.0574
     57  CG         7.1960    5.8790   34.5220 C.ar  109  PHE109     -0.0200
     58  CD1        8.2540    5.9350   33.6110 C.ar  109  PHE109     -0.0042
     59  CD2        5.9390    6.3080   34.1130 C.ar  109  PHE109     -0.0042
     60  CE1        8.0590    6.4170   32.3150 C.ar  109  PHE109     -0.0003
     61  CE2        5.7330    6.7930   32.8240 C.ar  109  PHE109     -0.0003
     62  CZ         6.7900    6.8500   31.9220 C.ar  109  PHE109     -0.0000
     63  N          7.9220    6.7760   39.2610 N.am  110  LYS110     -0.1963
     64  CA         8.0340    6.3980   40.6850 C.3   110  LYS110      0.1728
     65  C          7.3990    5.0360   41.0010 C.2   110  LYS110      0.2617
     66  O          8.0570    4.1070   41.4510 O.2   110  LYS110     -0.2715
     67  CB         7.3570    7.4540   41.5530 C.3   110  LYS110      0.0311
     68  CG         8.0830    8.7860   41.4960 C.3   110  LYS110      0.0038
     69  CD         7.6850    9.5470   40.2460 C.3   110  LYS110      0.0206
     70  CE         8.1490   10.9970   40.2630 C.3   110  LYS110      0.1093
     71  NZ         7.9870   11.5350   38.9270 N.3   110  LYS110     -0.1314
     72  N          6.0980    4.9040   40.7540 N.am  111  SER111     -0.1936
     73  CA         5.4120    3.6500   41.0290 C.3   111  SER111      0.2055
     74  C          5.5330    2.6380   39.8850 C.2   111  SER111      0.2643
     75  O          4.5600    1.9560   39.5610 O.2   111  SER111     -0.2714
     76  CB         3.9370    3.9160   41.3310 C.3   111  SER111      0.2130
     77  OG         3.2710    4.4550   40.2040 O.3   111  SER111     -0.2179
     78  N          6.7230    2.5520   39.2790 N.am  112  GLY112     -0.1954
     79  CA         6.9810    1.6070   38.1960 C.3   112  GLY112      0.1869
     80  C          6.0990    1.6350   36.9490 C.2   112  GLY112      0.2309
     81  O          5.1750    2.4490   36.8320 O.2   112  GLY112     -0.2863
@<TRIPOS>BOND
     1    35    34    1
     2    32    34   ar
     3    32    30   ar
     4     3     4    2
     5     3     2    1
     6    34    33   ar
     7    51    50    1
     8    49    50   ar
     9    49    47   ar
    10    30    29   ar
    11     8     6    1
    12     2     5    1
    13     2     1    1
    14    50    48   ar
    15    33    31   ar
    16     9    10    1
    17    47    45   ar
    18    62    60   ar
    19    62    61   ar
    20     5     6    1
    21    15    13    1
    22    29    31   ar
    23    29    28    1
    24    60    58   ar
    25     6     7    1
    26    10    13    1
    27    10    11    1
    28    36    37    1
    29    36    26   am
    30    48    46   ar
    31    25    24    1
    32    25    28    1
    33    25    26    1
    34    61    59   ar
    35    38    39    2
    36    38    37    1
    37    45    46   ar
    38    45    44    1
    39    13    14    1
    40    26    27    2
    41    58    57   ar
    42    22    21    2
    43    11    16   am
    44    11    12    2
    45    44    41    1
    46    59    57   ar
    47    16    17    1
    48    57    56    1
    49    21    23   am
    50    21    20    1
    51    18    17    1
    52    18    19    2
    53    17    20    1
    54    41    40    1
    55    41    42    1
    56    56    53    1
    57    42    43    2
    58    42    52   am
    59    52    53    1
    60    81    80    2
    61    53    54    1
    62    80    79    1
    63    79    78    1
    64    54    55    2
    65    54    63   am
    66    71    70    1
    67    63    64    1
    68    78    74   am
    69    75    74    2
    70    74    73    1
    71    77    76    1
    72    69    70    1
    73    69    68    1
    74    64    65    1
    75    64    67    1
    76    72    65   am
    77    72    73    1
    78    65    66    2
    79    73    76    1
    80    68    67    1
