@<TRIPOS>MOLECULE
tmp/1mdxA00.pdb
 159 154 0 0 0
SMALL
GASTEIGER

@<TRIPOS>ATOM
      1  N         31.8210   27.2830    4.6360 N.3    54  SER54      -0.1202
      2  CA        31.3670   27.5960    5.9680 C.3    54  SER54       0.2020
      3  C         31.3120   26.3210    6.8140 C.2    54  SER54       0.2619
      4  O         31.3520   25.2320    6.2520 O.2    54  SER54      -0.2717
      5  CB        29.9720   28.2550    5.9710 C.3    54  SER54       0.2103
      6  OG        28.9730   27.3820    5.4640 O.3    54  SER54      -0.2182
      7  N         31.2210   26.4640    8.1440 N.am   55  ALA55      -0.1965
      8  CA        31.0780   25.2390    8.9570 C.3    55  ALA55       0.1728
      9  C         29.7060   24.6150    8.7410 C.2    55  ALA55       0.2616
     10  O         29.5720   23.3870    8.7880 O.2    55  ALA55      -0.2715
     11  CB        31.4150   25.4860   10.3950 C.3    55  ALA55       0.0334
     12  N         28.6720   25.4140    8.4520 N.am   56  THR56      -0.1951
     13  CA        27.3460   24.8360    8.1060 C.3    56  THR56       0.1897
     14  C         27.4750   23.9330    6.8860 C.2    56  THR56       0.2313
     15  O         26.9260   22.8250    6.8370 O.2    56  THR56      -0.2863
     16  CB        26.3510   25.9700    7.7720 C.3    56  THR56       0.1794
     17  OG1       26.1860   26.8260    8.8840 O.3    56  THR56      -0.2208
     18  CG2       24.9590   25.4480    7.4020 C.3    56  THR56       0.0378
     19  N         22.6290   25.0090   20.6910 N.3    80  THR80      -0.1203
     20  CA        23.6360   25.0960   19.6360 C.3    80  THR80       0.1994
     21  C         23.0630   26.0060   18.5500 C.2    80  THR80       0.2617
     22  O         21.9270   26.4860   18.6950 O.2    80  THR80      -0.2717
     23  CB        24.0020   23.7300   19.0620 C.3    80  THR80       0.1784
     24  OG1       25.1330   23.8530   18.1640 O.3    80  THR80      -0.2211
     25  CG2       22.8620   23.0670   18.2940 C.3    80  THR80       0.0376
     26  N         23.8680   26.3260   17.5520 N.am   81  TRP81      -0.1975
     27  CA        23.3130   27.1840   16.4780 C.3    81  TRP81       0.1640
     28  C         22.3870   26.3200   15.6430 C.2    81  TRP81       0.2290
     29  O         22.6670   25.1250   15.4230 O.2    81  TRP81      -0.2864
     30  CB        24.4220   27.8650   15.7060 C.3    81  TRP81       0.0576
     31  CG        23.9310   28.6700   14.5310 C.ar   81  TRP81       0.0006
     32  CD1       24.3450   28.5350   13.2360 C.ar   81  TRP81       0.0946
     33  CD2       22.9680   29.7280   14.5420 C.ar   81  TRP81       0.0152
     34  NE1       23.6840   29.4430   12.4370 N.ar   81  TRP81      -0.2442
     35  CE2       22.8460   30.1930   13.2150 C.ar   81  TRP81       0.0810
     36  CE3       22.1990   30.3370   15.5350 C.ar   81  TRP81       0.0012
     37  CZ2       21.9850   31.2270   12.8660 C.ar   81  TRP81       0.0191
     38  CZ3       21.3370   31.3620   15.1910 C.ar   81  TRP81       0.0001
     39  CH2       21.2270   31.7860   13.8590 C.ar   81  TRP81       0.0015
     40  N         21.9410   25.9280   12.5740 N.3    83  SER83      -0.1202
     41  CA        22.4200   25.3560   11.3240 C.3    83  SER83       0.2020
     42  C         22.5060   23.8600   11.4010 C.2    83  SER83       0.2619
     43  O         22.1670   23.1520   10.4410 O.2    83  SER83      -0.2717
     44  CB        23.7850   25.9740   10.9260 C.3    83  SER83       0.2103
     45  OG        24.7460   25.6730   11.9260 O.3    83  SER83      -0.2182
     46  N         22.9950   23.3060   12.5160 N.am   84  THR84      -0.1952
     47  CA        23.0440   21.8410   12.6240 C.3    84  THR84       0.1897
     48  C         21.6780   21.1980   12.5060 C.2    84  THR84       0.2313
     49  O         21.5210   20.2400   11.7460 O.2    84  THR84      -0.2863
     50  CB        23.7240   21.3900   13.9300 C.3    84  THR84       0.1794
     51  OG1       25.0750   21.9090   13.8510 O.3    84  THR84      -0.2208
     52  CG2       23.8010   19.8660   13.9930 C.3    84  THR84       0.0378
     53  N         28.8730   19.5090   20.8220 N.3   126  VAL126     -0.1245
     54  CA        29.3900   20.8360   20.5730 C.3   126  VAL126      0.1561
     55  C         30.4080   21.2230   21.6710 C.2   126  VAL126      0.2260
     56  O         30.0730   21.1120   22.8560 O.2   126  VAL126     -0.2867
     57  CB        28.2940   21.9050   20.5770 C.3   126  VAL126      0.0252
     58  CG1       28.8440   23.2780   20.2230 C.3   126  VAL126      0.0019
     59  CG2       27.1410   21.5190   19.6600 C.3   126  VAL126      0.0019
     60  N         31.1000   19.2930   16.4620 N.3   152  ASP152     -0.1239
     61  CA        30.9120   20.6890   16.0560 C.3   152  ASP152      0.1674
     62  C         32.0070   21.4710   16.8400 C.2   152  ASP152      0.2266
     63  O         31.8620   21.6380   18.0390 O.2   152  ASP152     -0.2867
     64  CB        29.5450   21.2370   16.4400 C.3   152  ASP152      0.1410
     65  CG        29.3420   22.7000   16.1350 C.2   152  ASP152      0.3668
     66  OD1       28.1870   23.1860   16.1810 O.co2 152  ASP152     -0.2456
     67  OD2       30.3190   23.4340   15.8610 O.co2 152  ASP152     -0.2456
     68  N         33.0480   24.6760   16.0190 N.3   154  ALA154     -0.1231
     69  CA        33.0130   26.0410   15.5630 C.3   154  ALA154      0.1694
     70  C         33.5630   27.0090   16.6110 C.2   154  ALA154      0.2592
     71  O         34.1180   28.0360   16.2300 O.2   154  ALA154     -0.2718
     72  CB        31.6040   26.4480   15.1360 C.3   154  ALA154      0.0304
     73  N         33.4850   26.6870   17.9000 N.am  155  HIS155     -0.1976
     74  CA        33.9970   27.5340   18.9490 C.3   155  HIS155      0.1656
     75  C         35.3870   27.1010   19.4440 C.2   155  HIS155      0.2291
     76  O         35.8700   27.7010   20.4220 O.2   155  HIS155     -0.2864
     77  CB        33.1050   27.3720   20.2230 C.3   155  HIS155      0.0771
     78  CG        31.6910   27.7810   19.9880 C.ar  155  HIS155      0.0820
     79  ND1       30.7210   27.6720   20.9580 N.ar  155  HIS155     -0.2267
     80  CD2       31.0890   28.3270   18.8930 C.ar  155  HIS155      0.1154
     81  CE1       29.5710   28.1170   20.4640 C.ar  155  HIS155      0.1986
     82  NE2       29.7750   28.5290   19.2250 N.ar  155  HIS155     -0.2212
     83  N         35.0730   26.5770   12.1780 N.3   175  SER175     -0.1217
     84  CA        34.4940   27.7130   11.5050 C.3   175  SER175      0.1889
     85  C         35.4080   28.9250   11.4180 C.2   175  SER175      0.2288
     86  O         36.1640   29.2590   12.3440 O.2   175  SER175     -0.2866
     87  CB        33.2120   28.1650   12.2630 C.3   175  SER175      0.2089
     88  OG        32.6900   29.3460   11.6400 O.3   175  SER175     -0.2183
     89  N         33.9620   31.8860   10.4810 N.3   177  HIS177     -0.1241
     90  CA        33.0340   33.0370   10.4520 C.3   177  HIS177      0.1621
     91  C         33.6620   34.2320   11.1800 C.2   177  HIS177      0.2264
     92  O         34.4970   34.0890   12.0950 O.2   177  HIS177     -0.2867
     93  CB        31.6870   32.6530   11.0430 C.3   177  HIS177      0.0745
     94  CG        30.7750   33.7950   11.3350 C.ar  177  HIS177      0.0817
     95  ND1       29.8870   34.3030   10.4050 N.ar  177  HIS177     -0.2268
     96  CD2       30.6680   34.5890   12.4270 C.ar  177  HIS177      0.1154
     97  CE1       29.2580   35.3600   10.9320 C.ar  177  HIS177      0.1986
     98  NE2       29.6990   35.5390   12.1650 N.ar  177  HIS177     -0.2212
     99  N         33.0170   36.2280   13.6610 N.3   179  ILE179     -0.1231
    100  CA        33.1930   36.3610   15.1110 C.3   179  ILE179      0.1692
    101  C         33.9300   35.1730   15.7160 C.2   179  ILE179      0.2591
    102  O         33.9930   35.0350   16.9480 O.2   179  ILE179     -0.2718
    103  CB        31.8090   36.4640   15.8240 C.3   179  ILE179      0.0266
    104  CG1       31.0930   35.1090   15.7750 C.3   179  ILE179      0.0019
    105  CG2       30.9580   37.5470   15.1870 C.3   179  ILE179      0.0020
    106  CD1       29.8300   35.0270   16.6050 C.3   179  ILE179      0.0001
    107  N         34.4410   34.2520   14.8880 N.am  180  LYS180     -0.1980
    108  CA        35.1120   33.0720   15.4380 C.3   180  LYS180      0.1596
    109  C         36.5700   33.3900   15.7340 C.2   180  LYS180      0.2287
    110  O         37.0820   34.4300   15.2930 O.2   180  LYS180     -0.2864
    111  CB        34.9000   31.8450   14.5760 C.3   180  LYS180      0.0298
    112  CG        33.4930   31.5620   14.1160 C.3   180  LYS180      0.0038
    113  CD        32.4980   31.0510   15.1360 C.3   180  LYS180      0.0206
    114  CE        31.0680   31.2100   14.6080 C.3   180  LYS180      0.1093
    115  NZ        30.0880   30.2250   15.0690 N.3   180  LYS180     -0.1314
    116  N         33.8550   34.3030    6.0270 N.3   186  GLU186     -0.1231
    117  CA        33.0510   33.0860    6.0250 C.3   186  GLU186      0.1699
    118  C         33.9710   31.9430    5.5340 C.2   186  GLU186      0.2592
    119  O         34.7390   32.1510    4.5850 O.2   186  GLU186     -0.2718
    120  CB        31.8410   33.1320    5.1220 C.3   186  GLU186      0.0402
    121  CG        30.7890   34.1640    5.4010 C.3   186  GLU186      0.1161
    122  CD        29.9550   33.9430    6.6320 C.2   186  GLU186      0.3649
    123  OE1       29.2130   34.8740    7.0150 O.co2 186  GLU186     -0.2457
    124  OE2       30.0380   32.8870    7.2990 O.co2 186  GLU186     -0.2457
    125  N         33.8520   30.7990    6.1550 N.am  187  GLY187     -0.1957
    126  CA        34.6370   29.6310    5.7400 C.3   187  GLY187      0.1869
    127  C         34.6090   28.6090    6.8690 C.2   187  GLY187      0.2309
    128  O         34.1310   28.8540    7.9770 O.2   187  GLY187     -0.2863
    129  N         36.2730   31.4490   23.1130 N.3   279  HIS279     -0.1241
    130  CA        35.5290   32.0600   21.9880 C.3   279  HIS279      0.1621
    131  C         34.5210   33.0500   22.5010 C.2   279  HIS279      0.2264
    132  O         34.3020   34.1300   21.9280 O.2   279  HIS279     -0.2867
    133  CB        34.8550   30.9150   21.2080 C.3   279  HIS279      0.0745
    134  CG        33.8450   31.4120   20.2160 C.ar  279  HIS279      0.0817
    135  ND1       34.0700   32.4740   19.3880 N.ar  279  HIS279     -0.2268
    136  CD2       32.5900   30.9750   19.9400 C.ar  279  HIS279      0.1154
    137  CE1       32.9970   32.7100   18.6570 C.ar  279  HIS279      0.1986
    138  NE2       32.0860   31.7840   18.9460 N.ar  279  HIS279     -0.2212
    139  N         24.1140   33.4940   22.4290 N.3   311  HIS311     -0.1226
    140  CA        24.5560   32.1930   22.0020 C.3   311  HIS311      0.1752
    141  C         24.1940   31.1280   23.0310 C.2   311  HIS311      0.2596
    142  O         24.9810   30.7870   23.9190 O.2   311  HIS311     -0.2718
    143  CB        26.1110   32.1790   21.8550 C.3   311  HIS311      0.0759
    144  CG        26.5730   33.3190   20.9910 C.ar  311  HIS311      0.0818
    145  ND1       26.9840   34.5170   21.5060 N.ar  311  HIS311     -0.2268
    146  CD2       26.6150   33.4530   19.6450 C.ar  311  HIS311      0.1154
    147  CE1       27.2820   35.3490   20.5250 C.ar  311  HIS311      0.1986
    148  NE2       27.0640   34.7260   19.3770 N.ar  311  HIS311     -0.2212
    149  N         23.0580   30.4730   22.8220 N.am  312  PHE312     -0.1976
    150  CA        22.1450   30.7260   21.7430 C.3   312  PHE312      0.1639
    151  C         20.6940   30.6010   22.2610 C.2   312  PHE312      0.2290
    152  O         20.4670   30.0440   23.3280 O.2   312  PHE312     -0.2864
    153  CB        22.2370   29.5910   20.6660 C.3   312  PHE312      0.0560
    154  CG        23.5970   29.4870   20.0360 C.ar  312  PHE312     -0.0200
    155  CD1       24.5390   28.6150   20.5480 C.ar  312  PHE312     -0.0042
    156  CD2       23.9480   30.3150   18.9800 C.ar  312  PHE312     -0.0042
    157  CE1       25.8080   28.5480   20.0060 C.ar  312  PHE312     -0.0003
    158  CE2       25.2200   30.2360   18.4290 C.ar  312  PHE312     -0.0003
    159  CZ        26.1470   29.3560   18.9440 C.ar  312  PHE312     -0.0000
@<TRIPOS>BOND
     1   119   118    2
     2     1     2    1
     3   120   121    1
     4   120   117    1
     5   121   122    1
     6     6     5    1
     7   118   117    1
     8   118   125   am
     9   126   125    1
    10   126   127    1
    11     2     5    1
    12     2     3    1
    13   117   116    1
    14     4     3    2
    15   122   123   ar
    16   122   124   ar
    17     3     7   am
    18    15    14    2
    19   127   128    2
    20    14    13    1
    21    18    16    1
    22    16    13    1
    23    16    17    1
    24    13    12    1
    25     7     8    1
    26    12     9   am
    27     9    10    2
    28     9     8    1
    29     8    11    1
    30    95    97   ar
    31    95    94   ar
    32    43    42    2
    33    90    89    1
    34    90    93    1
    35    90    91    1
    36    44    41    1
    37    44    45    1
    38    97    98   ar
    39    93    94    1
    40    91    92    2
    41    41    42    1
    42    41    40    1
    43    94    96   ar
    44    42    46   am
    45    85    84    1
    46    85    86    2
    47    84    83    1
    48    84    87    1
    49    88    87    1
    50    49    48    2
    51    98    96   ar
    52    34    35   ar
    53    34    32   ar
    54    48    47    1
    55    46    47    1
    56    47    50    1
    57    37    35   ar
    58    37    39   ar
    59    35    33   ar
    60    32    31   ar
    61    99   100    1
    62    51    50    1
    63    39    38   ar
    64    50    52    1
    65   112   111    1
    66   112   113    1
    67    31    33   ar
    68    31    30    1
    69    33    36   ar
    70   111   108    1
    71   114   115    1
    72   114   113    1
    73   107   108    1
    74   107   101   am
    75   100   101    1
    76   100   103    1
    77    72    69    1
    78   105   103    1
    79    38    36   ar
    80   110   109    2
    81    29    28    2
    82   108   109    1
    83    69    68    1
    84    69    70    1
    85    28    27    1
    86    30    27    1
    87   101   102    2
    88   104   103    1
    89   104   106    1
    90    67    65   ar
    91    61    64    1
    92    61    60    1
    93    61    62    1
    94    65    66   ar
    95    65    64    1
    96    71    70    2
    97    27    26    1
    98    70    73   am
    99    62    63    2
   100    26    21   am
   101    73    74    1
   102    24    23    1
   103    25    23    1
   104   158   159   ar
   105   158   156   ar
   106    21    22    2
   107    21    20    1
   108   137   138   ar
   109   137   135   ar
   110    80    82   ar
   111    80    78   ar
   112   159   157   ar
   113   138   136   ar
   114    74    75    1
   115    74    77    1
   116   156   154   ar
   117    23    20    1
   118    82    81   ar
   119   148   146   ar
   120   148   147   ar
   121   135   134   ar
   122    75    76    2
   123    20    19    1
   124   146   144   ar
   125    59    57    1
   126   136   134   ar
   127    78    77    1
   128    78    79   ar
   129   157   155   ar
   130   154   155   ar
   131   154   153    1
   132   134   133    1
   133    58    57    1
   134    81    79   ar
   135   147   145   ar
   136    54    57    1
   137    54    53    1
   138    54    55    1
   139   153   150    1
   140   144   145   ar
   141   144   143    1
   142   133   130    1
   143    55    56    2
   144   150   151    1
   145   150   149    1
   146   143   140    1
   147   132   131    2
   148   130   131    1
   149   130   129    1
   150   140   139    1
   151   140   141    1
   152   151   152    2
   153   149   141   am
   154   141   142    2
