@<TRIPOS>MOLECULE
tmp/1mdzA00.pdb
 178 172 0 0 0
SMALL
GASTEIGER

@<TRIPOS>ATOM
      1  N         30.0410   43.1440   20.5920 N.3     5  PHE5       -0.1241
      2  CA        30.5240   42.0140   21.3830 C.3     5  PHE5        0.1605
      3  C         31.7310   41.3490   20.7300 C.2     5  PHE5        0.2264
      4  O         32.4450   40.6280   21.4330 O.2     5  PHE5       -0.2867
      5  CB        29.4690   40.9920   21.7030 C.3     5  PHE5        0.0534
      6  CG        29.0720   40.0000   20.6620 C.ar    5  PHE5       -0.0203
      7  CD1       29.7830   38.8350   20.4670 C.ar    5  PHE5       -0.0042
      8  CD2       27.9310   40.2060   19.8910 C.ar    5  PHE5       -0.0042
      9  CE1       29.3990   37.9080   19.5240 C.ar    5  PHE5       -0.0003
     10  CE2       27.5210   39.2780   18.9540 C.ar    5  PHE5       -0.0003
     11  CZ        28.2700   38.1280   18.7620 C.ar    5  PHE5       -0.0000
     12  N         31.7230   27.2530    4.6110 N.3    54  SER54      -0.1202
     13  CA        31.2370   27.5660    5.9260 C.3    54  SER54       0.2020
     14  C         31.2070   26.3020    6.7980 C.2    54  SER54       0.2619
     15  O         31.3380   25.2000    6.2490 O.2    54  SER54      -0.2717
     16  CB        29.8270   28.1970    5.9150 C.3    54  SER54       0.2103
     17  OG        28.8720   27.2530    5.4620 O.3    54  SER54      -0.2182
     18  N         31.1070   26.4490    8.1170 N.am   55  ALA55      -0.1965
     19  CA        31.0220   25.2490    8.9760 C.3    55  ALA55       0.1728
     20  C         29.6400   24.6090    8.7490 C.2    55  ALA55       0.2616
     21  O         29.5160   23.3800    8.7750 O.2    55  ALA55      -0.2715
     22  CB        31.3250   25.5410   10.4060 C.3    55  ALA55       0.0334
     23  N         28.6010   25.4100    8.4820 N.am   56  THR56      -0.1951
     24  CA        27.2820   24.8300    8.1180 C.3    56  THR56       0.1897
     25  C         27.4620   23.8920    6.9420 C.2    56  THR56       0.2313
     26  O         26.9680   22.7460    6.9030 O.2    56  THR56      -0.2863
     27  CB        26.2990   25.9450    7.7300 C.3    56  THR56       0.1794
     28  OG1       26.0910   26.8130    8.8580 O.3    56  THR56      -0.2208
     29  CG2       24.9140   25.4540    7.3350 C.3    56  THR56       0.0378
     30  N         29.0320   20.7200    7.8610 N.3    59  MET59      -0.1245
     31  CA        28.0620   19.8440    8.5470 C.3    59  MET59       0.1570
     32  C         27.1600   19.1500    7.5480 C.2    59  MET59       0.2261
     33  O         26.9700   17.9230    7.5300 O.2    59  MET59      -0.2867
     34  CB        27.2720   20.6470    9.5750 C.3    59  MET59       0.0387
     35  CG        26.3070   19.8110   10.4410 C.3    59  MET59       0.0595
     36  SD        27.2210   18.6050   11.4780 S.3    59  MET59      -0.1393
     37  CE        27.8240   19.7380   12.7300 C.3    59  MET59       0.0692
     38  N         22.4960   24.9190   20.6010 N.3    80  THR80      -0.1203
     39  CA        23.5160   25.0350   19.5570 C.3    80  THR80       0.1994
     40  C         22.9240   25.9240   18.4680 C.2    80  THR80       0.2617
     41  O         21.7810   26.3870   18.6200 O.2    80  THR80      -0.2717
     42  CB        23.9350   23.6840   18.9850 C.3    80  THR80       0.1784
     43  OG1       25.0770   23.7870   18.1190 O.3    80  THR80      -0.2211
     44  CG2       22.8090   23.0370   18.1720 C.3    80  THR80       0.0376
     45  N         23.7270   26.2230   17.4580 N.am   81  TRP81      -0.1975
     46  CA        23.2130   27.0880   16.3800 C.3    81  TRP81       0.1640
     47  C         22.2300   26.2650   15.5480 C.2    81  TRP81       0.2290
     48  O         22.4620   25.0700   15.3410 O.2    81  TRP81      -0.2864
     49  CB        24.3660   27.6360   15.5590 C.3    81  TRP81       0.0576
     50  CG        23.9590   28.5710   14.4560 C.ar   81  TRP81       0.0006
     51  CD1       24.3810   28.5550   13.1630 C.ar   81  TRP81       0.0946
     52  CD2       23.0470   29.6760   14.5610 C.ar   81  TRP81       0.0152
     53  NE1       23.7990   29.5710   12.4530 N.ar   81  TRP81      -0.2442
     54  CE2       22.9780   30.2810   13.2920 C.ar   81  TRP81       0.0810
     55  CE3       22.2990   30.2180   15.6070 C.ar   81  TRP81       0.0012
     56  CZ2       22.1740   31.3890   13.0460 C.ar   81  TRP81       0.0191
     57  CZ3       21.5000   31.3150   15.3670 C.ar   81  TRP81       0.0001
     58  CH2       21.4480   31.8950   14.0930 C.ar   81  TRP81       0.0015
     59  N         21.8800   25.9370   12.4200 N.3    83  SER83      -0.1202
     60  CA        22.4420   25.3020   11.2350 C.3    83  SER83       0.2020
     61  C         22.4600   23.7970   11.3380 C.2    83  SER83       0.2619
     62  O         22.1660   23.0720   10.3520 O.2    83  SER83      -0.2717
     63  CB        23.8600   25.8200   10.9460 C.3    83  SER83       0.2103
     64  OG        24.7750   25.5200   12.0030 O.3    83  SER83      -0.2182
     65  N         22.9270   23.2490   12.4820 N.am   84  THR84      -0.1952
     66  CA        22.9850   21.7910   12.5630 C.3    84  THR84       0.1897
     67  C         21.6150   21.1530   12.4040 C.2    84  THR84       0.2313
     68  O         21.5180   20.1550   11.7280 O.2    84  THR84      -0.2863
     69  CB        23.6310   21.2870   13.8790 C.3    84  THR84       0.1794
     70  OG1       24.9860   21.7800   13.9070 O.3    84  THR84      -0.2208
     71  CG2       23.6740   19.7690   13.8870 C.3    84  THR84       0.0378
     72  N         28.7670   19.5070   20.8210 N.3   126  VAL126     -0.1245
     73  CA        29.2780   20.8310   20.5460 C.3   126  VAL126      0.1561
     74  C         30.2880   21.2340   21.6210 C.2   126  VAL126      0.2260
     75  O         29.9540   21.1860   22.8060 O.2   126  VAL126     -0.2867
     76  CB        28.1880   21.9180   20.5310 C.3   126  VAL126      0.0252
     77  CG1       28.7930   23.2810   20.2020 C.3   126  VAL126      0.0019
     78  CG2       27.0920   21.5480   19.5420 C.3   126  VAL126      0.0019
     79  N         31.0640   19.2050   16.4860 N.3   152  ASP152     -0.1239
     80  CA        30.8410   20.5960   16.1060 C.3   152  ASP152      0.1674
     81  C         31.9240   21.3960   16.8540 C.2   152  ASP152      0.2266
     82  O         31.7860   21.6810   18.0470 O.2   152  ASP152     -0.2867
     83  CB        29.4560   21.1220   16.4690 C.3   152  ASP152      0.1410
     84  CG        29.2280   22.5490   16.0230 C.2   152  ASP152      0.3668
     85  OD1       28.0540   22.9800   15.9620 O.co2 152  ASP152     -0.2456
     86  OD2       30.1970   23.2820   15.7200 O.co2 152  ASP152     -0.2456
     87  N         32.9930   24.6080   15.9300 N.3   154  ALA154     -0.1231
     88  CA        32.9510   25.9690   15.4480 C.3   154  ALA154      0.1694
     89  C         33.4540   26.9760   16.4690 C.2   154  ALA154      0.2592
     90  O         33.9400   28.0440   16.1020 O.2   154  ALA154     -0.2718
     91  CB        31.5270   26.3090   15.0020 C.3   154  ALA154      0.0304
     92  N         33.3630   26.6730   17.7670 N.am  155  HIS155     -0.1976
     93  CA        33.8610   27.5900   18.7800 C.3   155  HIS155      0.1656
     94  C         35.2180   27.1040   19.3270 C.2   155  HIS155      0.2291
     95  O         35.6950   27.7050   20.2990 O.2   155  HIS155     -0.2864
     96  CB        32.9360   27.5060   20.0060 C.3   155  HIS155      0.0771
     97  CG        31.5020   27.8210   19.7840 C.ar  155  HIS155      0.0820
     98  ND1       30.5580   27.5980   20.7640 N.ar  155  HIS155     -0.2267
     99  CD2       30.8260   28.3460   18.7210 C.ar  155  HIS155      0.1154
    100  CE1       29.3640   27.9830   20.3120 C.ar  155  HIS155      0.1986
    101  NE2       29.5150   28.4610   19.0920 N.ar  155  HIS155     -0.2212
    102  N         35.0460   26.5010   12.1210 N.3   175  SER175     -0.1217
    103  CA        34.4790   27.6380   11.4540 C.3   175  SER175      0.1889
    104  C         35.3940   28.8480   11.4000 C.2   175  SER175      0.2288
    105  O         36.1360   29.1570   12.3530 O.2   175  SER175     -0.2866
    106  CB        33.1880   28.0620   12.1950 C.3   175  SER175      0.2089
    107  OG        32.7000   29.3080   11.6950 O.3   175  SER175     -0.2183
    108  N         33.9100   31.7830   10.4570 N.3   177  HIS177     -0.1241
    109  CA        32.9750   32.9280   10.3800 C.3   177  HIS177      0.1621
    110  C         33.6130   34.1510   11.0390 C.2   177  HIS177      0.2264
    111  O         34.4360   34.0390   11.9560 O.2   177  HIS177     -0.2867
    112  CB        31.6330   32.5870   11.0520 C.3   177  HIS177      0.0745
    113  CG        30.7280   33.7460   11.2770 C.ar  177  HIS177      0.0817
    114  ND1       29.6620   34.0430   10.4440 N.ar  177  HIS177     -0.2268
    115  CD2       30.7350   34.7190   12.2300 C.ar  177  HIS177      0.1154
    116  CE1       29.0730   35.1640   10.8720 C.ar  177  HIS177      0.1986
    117  NE2       29.7120   35.5910   11.9460 N.ar  177  HIS177     -0.2212
    118  N         33.0490   36.2350   13.5100 N.3   179  ILE179     -0.1231
    119  CA        33.3220   36.4720   14.9410 C.3   179  ILE179      0.1692
    120  C         33.9570   35.2730   15.6280 C.2   179  ILE179      0.2592
    121  O         33.9860   35.1410   16.8590 O.2   179  ILE179     -0.2718
    122  CB        32.0720   37.0130   15.6340 C.3   179  ILE179      0.0266
    123  CG1       31.0880   35.9230   16.0260 C.3   179  ILE179      0.0019
    124  CG2       31.2810   38.0160   14.7860 C.3   179  ILE179      0.0020
    125  CD1       31.1930   35.4810   17.4560 C.3   179  ILE179      0.0001
    126  N         34.4980   34.3260   14.8500 N.am  180  LYS180     -0.1976
    127  CA        35.1170   33.1270   15.4450 C.3   180  LYS180      0.1639
    128  C         36.5940   33.3650   15.6970 C.2   180  LYS180      0.2290
    129  O         37.1820   34.3820   15.2540 O.2   180  LYS180     -0.2864
    130  CB        34.7050   31.8970   14.6500 C.3   180  LYS180      0.0554
    131  CG        33.2990   31.7870   14.1170 C.2   180  LYS180     -0.0270
    132  CD        32.2300   31.0240   14.8450 C.2   180  LYS180     -0.0102
    133  CE        30.8600   30.9640   14.1550 C.3   180  LYS180      0.1350
    134  NZ        29.8830   30.0740   14.8300 N.3   180  LYS180     -0.1262
    135  N         33.7640   34.2390    6.0830 N.3   186  GLU186     -0.1231
    136  CA        32.9540   33.0530    6.0220 C.3   186  GLU186      0.1699
    137  C         33.8920   31.9210    5.5100 C.2   186  GLU186      0.2592
    138  O         34.6720   32.1530    4.5870 O.2   186  GLU186     -0.2718
    139  CB        31.7340   33.0880    5.1170 C.3   186  GLU186      0.0402
    140  CG        30.7250   34.1790    5.3990 C.3   186  GLU186      0.1161
    141  CD        29.8880   33.9500    6.6310 C.2   186  GLU186      0.3649
    142  OE1       29.9760   32.8690    7.2600 O.co2 186  GLU186     -0.2457
    143  OE2       29.1650   34.8770    7.0130 O.co2 186  GLU186     -0.2457
    144  N         33.7870   30.7660    6.1270 N.am  187  GLY187     -0.1957
    145  CA        34.5800   29.6080    5.7100 C.3   187  GLY187      0.1869
    146  C         34.5320   28.5540    6.8110 C.2   187  GLY187      0.2309
    147  O         34.0430   28.8110    7.9070 O.2   187  GLY187     -0.2863
    148  N         36.1190   31.3800   23.0220 N.3   278  HIS278     -0.1241
    149  CA        35.4360   31.9890   21.8600 C.3   278  HIS278      0.1621
    150  C         34.4130   32.9800   22.3710 C.2   278  HIS278      0.2264
    151  O         34.2420   34.0920   21.8800 O.2   278  HIS278     -0.2867
    152  CB        34.8350   30.8820   20.9960 C.3   278  HIS278      0.0745
    153  CG        33.7880   31.3950   20.0540 C.ar  278  HIS278      0.0817
    154  ND1       33.9790   32.5200   19.2870 N.ar  278  HIS278     -0.2268
    155  CD2       32.5400   30.9660   19.7820 C.ar  278  HIS278      0.1154
    156  CE1       32.8940   32.7630   18.5900 C.ar  278  HIS278      0.1986
    157  NE2       32.0010   31.8170   18.8520 N.ar  278  HIS278     -0.2212
    158  N         23.9510   33.3690   22.5190 N.3   310  HIS310     -0.1226
    159  CA        24.3730   32.0340   22.1270 C.3   310  HIS310      0.1752
    160  C         23.9480   30.9770   23.1220 C.2   310  HIS310      0.2596
    161  O         24.6890   30.6280   24.0540 O.2   310  HIS310     -0.2718
    162  CB        25.9280   32.0060   21.9990 C.3   310  HIS310      0.0759
    163  CG        26.4170   33.0860   21.0740 C.ar  310  HIS310      0.0818
    164  ND1       26.8420   34.3120   21.5160 N.ar  310  HIS310     -0.2268
    165  CD2       26.4690   33.1400   19.7160 C.ar  310  HIS310      0.1154
    166  CE1       27.1450   35.0830   20.4920 C.ar  310  HIS310      0.1986
    167  NE2       26.9260   34.3920   19.3840 N.ar  310  HIS310     -0.2212
    168  N         22.7900   30.3440   22.9130 N.am  311  PHE311     -0.1976
    169  CA        21.8820   30.5810   21.8300 C.3   311  PHE311      0.1639
    170  C         20.4090   30.4830   22.2800 C.2   311  PHE311      0.2290
    171  O         20.0770   29.9270   23.3250 O.2   311  PHE311     -0.2864
    172  CB        21.9740   29.4270   20.7740 C.3   311  PHE311      0.0560
    173  CG        23.3200   29.2680   20.1400 C.ar  311  PHE311     -0.0200
    174  CD1       24.2570   28.4040   20.6820 C.ar  311  PHE311     -0.0042
    175  CD2       23.6770   30.0320   19.0440 C.ar  311  PHE311     -0.0042
    176  CE1       25.5200   28.2890   20.1260 C.ar  311  PHE311     -0.0003
    177  CE2       24.9420   29.9210   18.4990 C.ar  311  PHE311     -0.0003
    178  CZ        25.8620   29.0600   19.0380 C.ar  311  PHE311     -0.0000
@<TRIPOS>BOND
     1   138   137    2
     2    12    13    1
     3   139   140    1
     4   139   136    1
     5   140   141    1
     6    17    16    1
     7   137   136    1
     8   137   144   am
     9   145   144    1
    10   145   146    1
    11    16    13    1
    12    13    14    1
    13   136   135    1
    14    15    14    2
    15   141   143   ar
    16   141   142   ar
    17    14    18   am
    18   146   147    2
    19    26    25    2
    20    25    24    1
    21    29    27    1
    22    33    32    2
    23    32    31    1
    24    27    24    1
    25    27    28    1
    26    30    31    1
    27    18    19    1
    28    24    23    1
    29    23    20   am
    30    31    34    1
    31    20    21    2
    32    20    19    1
    33    19    22    1
    34    34    35    1
    35    62    61    2
    36   109   108    1
    37   109   110    1
    38   109   112    1
    39    35    36    1
    40   114   116   ar
    41   114   113   ar
    42   116   117   ar
    43    63    60    1
    44    63    64    1
    45   110   111    2
    46   112   113    1
    47    60    61    1
    48    60    59    1
    49   113   115   ar
    50    61    65   am
    51   104   103    1
    52   104   105    2
    53   103   102    1
    54   103   106    1
    55    36    37    1
    56   107   106    1
    57    68    67    2
    58   117   115   ar
    59    67    66    1
    60    53    51   ar
    61    53    54   ar
    62    65    66    1
    63    66    69    1
    64    56    54   ar
    65    56    58   ar
    66    51    50   ar
    67    54    52   ar
    68   118   119    1
    69    69    71    1
    70    69    70    1
    71    58    57   ar
    72   131   130    1
    73   131   132    2
    74   133   134    1
    75   133   132    1
    76    50    52   ar
    77    50    49    1
    78    52    55   ar
    79   130   127    1
    80   124   122    1
    81   126   127    1
    82   126   120   am
    83   119   120    1
    84   119   122    1
    85    91    88    1
    86   129   128    2
    87    48    47    2
    88    57    55   ar
    89   127   128    1
    90    88    87    1
    91    88    89    1
    92    47    46    1
    93    49    46    1
    94   120   121    2
    95   122   123    1
    96    86    84   ar
    97    85    84   ar
    98    84    83    1
    99   123   125    1
   100    90    89    2
   101    80    83    1
   102    80    79    1
   103    80    81    1
   104    46    45    1
   105    89    92   am
   106    81    82    2
   107    45    40   am
   108    92    93    1
   109    43    42    1
   110    44    42    1
   111    40    41    2
   112    40    39    1
   113   177   178   ar
   114   177   175   ar
   115   156   157   ar
   116   156   154   ar
   117    99   101   ar
   118    99    97   ar
   119    11    10   ar
   120    11     9   ar
   121    93    94    1
   122    93    96    1
   123   157   155   ar
   124    10     8   ar
   125    42    39    1
   126   178   176   ar
   127   175   173   ar
   128   101   100   ar
   129   154   153   ar
   130    94    95    2
   131   167   165   ar
   132   167   166   ar
   133     9     7   ar
   134    78    76    1
   135    39    38    1
   136   165   163   ar
   137   155   153   ar
   138    97    96    1
   139    97    98   ar
   140     8     6   ar
   141   153   152    1
   142   176   174   ar
   143   173   174   ar
   144   173   172    1
   145    77    76    1
   146   100    98   ar
   147     7     6   ar
   148   166   164   ar
   149    76    73    1
   150    73    72    1
   151    73    74    1
   152     1     2    1
   153     6     5    1
   154     3     2    1
   155     3     4    2
   156   172   169    1
   157   152   149    1
   158   163   164   ar
   159   163   162    1
   160     2     5    1
   161    74    75    2
   162   169   170    1
   163   169   168    1
   164   149   150    1
   165   149   148    1
   166   151   150    2
   167   162   159    1
   168   159   158    1
   169   159   160    1
   170   170   171    2
   171   168   160   am
   172   160   161    2
