@<TRIPOS>MOLECULE
tmp/1me3A00.pdb
 156 151 0 0 0
SMALL
GASTEIGER

@<TRIPOS>ATOM
      1  N         14.5240    8.4700   11.7930 N.3    19  GLN19      -0.1245
      2  CA        14.1230    9.2680   10.6220 C.3    19  GLN19       0.1566
      3  C         14.6850   10.6820   10.6940 C.2    19  GLN19       0.2260
      4  O         14.7220   11.3850    9.6390 O.2    19  GLN19      -0.2867
      5  CB        12.6030    9.2900   10.4680 C.3    19  GLN19       0.0367
      6  CG        11.8370   10.0670   11.5720 C.3    19  GLN19       0.0905
      7  CD        10.3290    9.9570   11.3400 C.2    19  GLN19       0.2608
      8  OE1        9.6900    8.9670   11.7230 O.2    19  GLN19      -0.2717
      9  NE2        9.7170   10.9610   10.6820 N.am   19  GLN19      -0.0878
     10  N         10.0580   14.3500    7.3950 N.3    23  GLY23      -0.1225
     11  CA         8.7660   13.6850    7.4920 C.3    23  GLY23       0.1811
     12  C          8.6900   12.4480    6.6240 C.2    23  GLY23       0.2280
     13  O          7.8220   12.3230    5.7090 O.2    23  GLY23      -0.2866
     14  N          8.3640    9.1500    7.7850 N.3    25  CYS25      -0.1221
     15  CA         7.8330    7.9560    8.4500 C.3    25  CYS25       0.1808
     16  C          7.2260    6.9340    7.4610 C.2    25  CYS25       0.2601
     17  O          7.3910    5.7290    7.6440 O.2    25  CYS25      -0.2717
     18  CB         6.7960    8.3750    9.5580 C.3    25  CYS25       0.0970
     19  SG         5.2920    9.1650    8.8610 S.3    25  CYS25      -0.0800
     20  N          6.5290    7.4470    6.4340 N.am   26  TRP26      -0.1976
     21  CA         5.9130    6.6040    5.4030 C.3    26  TRP26       0.1640
     22  C          6.9410    5.6700    4.7450 C.2    26  TRP26       0.2290
     23  O          6.6170    4.5230    4.4240 O.2    26  TRP26      -0.2864
     24  CB         5.2130    7.5190    4.3540 C.3    26  TRP26       0.0576
     25  CG         6.1490    8.4620    3.6430 C.ar   26  TRP26       0.0006
     26  CD1        6.5830    9.6880    4.0800 C.ar   26  TRP26       0.0946
     27  CD2        6.7860    8.2500    2.3530 C.ar   26  TRP26       0.0152
     28  NE1        7.4390   10.2560    3.1490 N.ar   26  TRP26      -0.2442
     29  CE2        7.5730    9.3950    2.0800 C.ar   26  TRP26       0.0810
     30  CE3        6.7490    7.2320    1.4070 C.ar   26  TRP26       0.0012
     31  CZ2        8.3300    9.5300    0.9100 C.ar   26  TRP26       0.0191
     32  CZ3        7.4840    7.3610    0.2560 C.ar   26  TRP26       0.0001
     33  CH2        8.2670    8.4940   -0.0020 C.ar   26  TRP26       0.0015
     34  N          5.6400   10.0800   -6.6250 N.3    59  THR59      -0.1203
     35  CA         4.2300    9.9490   -6.2950 C.3    59  THR59       0.1994
     36  C          3.9300   10.2060   -4.7980 C.2    59  THR59       0.2618
     37  O          2.7690   10.2610   -4.3630 O.2    59  THR59      -0.2717
     38  CB         3.6070    8.6020   -6.7440 C.3    59  THR59       0.1784
     39  OG1        3.9140    7.5620   -5.7990 O.3    59  THR59      -0.2211
     40  CG2        4.0740    8.1820   -8.1410 C.3    59  THR59       0.0376
     41  N          5.0130   10.3630   -4.0190 N.am   60  ASP60      -0.1959
     42  CA         4.9850   10.7730   -2.6210 C.3    60  ASP60       0.1840
     43  C          5.7390   12.1120   -2.4970 C.2    60  ASP60       0.2622
     44  O          6.1970   12.6370   -3.5120 O.2    60  ASP60      -0.2715
     45  CB         5.4850    9.6270   -1.7270 C.3    60  ASP60       0.1450
     46  CG         4.4340    8.5530   -1.6640 C.2    60  ASP60       0.3671
     47  OD1        3.2860    8.8910   -1.2090 O.co2  60  ASP60      -0.2456
     48  OD2        4.6530    7.3730   -2.1200 O.co2  60  ASP60      -0.2456
     49  N          5.8250   12.6930   -1.2970 N.am   61  SER61      -0.1950
     50  CA         6.2930   14.0650   -1.1060 C.3    61  SER61       0.1924
     51  C          7.5160   14.2110   -0.2180 C.2    61  SER61       0.2314
     52  O          7.6500   15.2070    0.5090 O.2    61  SER61      -0.2863
     53  CB         5.1030   14.9090   -0.6020 C.3    61  SER61       0.2116
     54  OG         3.9750   14.7990   -1.4460 O.3    61  SER61      -0.2180
     55  N         10.2980   14.7000    2.3370 N.3    63  CYS63      -0.1221
     56  CA        10.2210   15.0230    3.7540 C.3    63  CYS63       0.1808
     57  C          8.9120   15.7020    4.1740 C.2    63  CYS63       0.2602
     58  O          8.7940   16.0490    5.3390 O.2    63  CYS63      -0.2717
     59  CB        11.4650   15.8580    4.1510 C.3    63  CYS63       0.0970
     60  SG        13.0510   14.9590    4.1260 S.3    63  CYS63      -0.0800
     61  N          7.9650   15.9380    3.2380 N.am   64  SER64      -0.1938
     62  CA         6.6420   16.4490    3.5490 C.3    64  SER64       0.2055
     63  C          5.5550   15.3940    3.6090 C.2    64  SER64       0.2644
     64  O          4.3390   15.7210    3.6980 O.2    64  SER64      -0.2714
     65  CB         6.2220   17.5290    2.5470 C.3    64  SER64       0.2130
     66  OG         7.1150   18.6200    2.5520 O.3    64  SER64      -0.2179
     67  N          5.9150   14.1280    3.5540 N.am   65  GLY65      -0.1939
     68  CA         5.0000   13.0310    3.7700 C.3    65  GLY65       0.2014
     69  C          4.7080   12.1430    2.5860 C.2    65  GLY65       0.2639
     70  O          5.1130   12.4160    1.4620 O.2    65  GLY65      -0.2714
     71  N          3.9680   11.0580    2.8160 N.am   66  GLY66      -0.1939
     72  CA         3.6150   10.1060    1.7990 C.3    66  GLY66       0.2014
     73  C          2.7160    8.9920    2.3200 C.2    66  GLY66       0.2639
     74  O          2.3930    8.9280    3.5100 O.2    66  GLY66      -0.2714
     75  N          2.3090    8.1120    1.4170 N.am   67  LEU67      -0.1963
     76  CA         1.4200    6.9900    1.6920 C.3    67  LEU67       0.1728
     77  C          2.1670    5.6900    1.4230 C.2    67  LEU67       0.2616
     78  O          2.7660    5.5280    0.3270 O.2    67  LEU67      -0.2715
     79  CB         0.1350    7.0750    0.8360 C.3    67  LEU67       0.0311
     80  CG        -0.7350    8.3150    1.0060 C.3    67  LEU67       0.0022
     81  CD1       -1.9230    8.3030    0.0250 C.3    67  LEU67       0.0001
     82  CD2       -1.2340    8.4730    2.4160 C.3    67  LEU67       0.0001
     83  N          2.1630    4.7410    2.3370 N.am   68  MET68      -0.1977
     84  CA         2.8210    3.4230    2.1100 C.3    68  MET68       0.1605
     85  C          2.2400    2.7650    0.8590 C.2    68  MET68       0.2287
     86  O          3.0230    2.1960    0.1080 O.2    68  MET68      -0.2864
     87  CB         2.7010    2.5270    3.3380 C.3    68  MET68       0.0413
     88  CG         3.4620    3.0390    4.5500 C.3    68  MET68       0.0598
     89  SD         2.6510    4.3270    5.5300 S.3    68  MET68      -0.1393
     90  CE         1.4180    3.3410    6.4570 C.3    68  MET68       0.0692
     91  N          1.0310    4.1820   -1.8950 N.3    70  ASN70      -0.1240
     92  CA         1.6550    4.8240   -3.0680 C.3    70  ASN70       0.1653
     93  C          3.0760    4.3100   -3.2600 C.2    70  ASN70       0.2266
     94  O          3.4990    4.0290   -4.3840 O.2    70  ASN70      -0.2867
     95  CB         1.6900    6.3310   -2.9770 C.3    70  ASN70       0.1155
     96  CG         0.4100    7.1020   -3.2020 C.2    70  ASN70       0.2627
     97  OD1       -0.6730    6.5320   -3.3270 O.2    70  ASN70      -0.2716
     98  ND2        0.5630    8.4270   -3.2400 N.am   70  ASN70      -0.0877
     99  N         -0.8280    2.8510    9.4670 N.3   138  ALA138     -0.1245
    100  CA        -0.9060    4.2300    9.9100 C.3   138  ALA138      0.1562
    101  C         -1.5620    4.3360   11.2900 C.2   138  ALA138      0.2260
    102  O         -2.4800    3.5590   11.6090 O.2   138  ALA138     -0.2867
    103  CB        -1.6380    5.1200    8.8890 C.3   138  ALA138      0.0290
    104  N         -5.3090    9.9680   11.4630 N.3   160  LEU160     -0.1231
    105  CA        -4.0880    9.2620   11.0600 C.3   160  LEU160      0.1693
    106  C         -3.0060   10.2740   10.6650 C.2   160  LEU160      0.2592
    107  O         -3.2970   11.1650    9.8580 O.2   160  LEU160     -0.2718
    108  CB        -4.3580    8.3230    9.8920 C.3   160  LEU160      0.0284
    109  CG        -5.2850    7.1250   10.1950 C.3   160  LEU160      0.0019
    110  CD1       -5.5970    6.4010    8.8670 C.3   160  LEU160      0.0001
    111  CD2       -4.6690    6.1680   11.1870 C.3   160  LEU160      0.0001
    112  N         -1.7530   10.1710   11.1620 N.am  161  ASP161     -0.1960
    113  CA        -0.6860   11.0640   10.8070 C.3   161  ASP161      0.1840
    114  C          0.7280   10.4340   10.7720 C.2   161  ASP161      0.2622
    115  O          1.7200   11.1510   10.5080 O.2   161  ASP161     -0.2715
    116  CB        -0.6710   12.3150   11.7340 C.3   161  ASP161      0.1450
    117  CG        -0.3710   11.9950   13.2030 C.2   161  ASP161      0.3671
    118  OD1       -0.4330   12.9710   14.0050 O.co2 161  ASP161     -0.2456
    119  OD2       -0.0460   10.8510   13.5250 O.co2 161  ASP161     -0.2456
    120  N          0.8930    9.1390   11.0200 N.am  162  HIS162     -0.1959
    121  CA         2.2190    8.5250   11.2470 C.3   162  HIS162      0.1787
    122  C          2.2380    7.0960   10.7630 C.2   162  HIS162      0.2620
    123  O          1.3750    6.2880   11.1290 O.2   162  HIS162     -0.2715
    124  CB         2.5900    8.6390   12.7410 C.3   162  HIS162      0.0785
    125  CG         3.9690    8.2590   13.1260 C.ar  162  HIS162      0.0821
    126  ND1        5.0850    8.7200   12.5000 N.ar  162  HIS162     -0.2267
    127  CD2        4.4010    7.3930   14.0580 C.ar  162  HIS162      0.1154
    128  CE1        6.1360    8.1750   13.0820 C.ar  162  HIS162      0.1986
    129  NE2        5.7790    7.3380   14.0420 N.ar  162  HIS162     -0.2212
    130  N          3.2210    6.7170    9.9410 N.am  163  GLY163     -0.1954
    131  CA         3.4100    5.3570    9.4600 C.3   163  GLY163      0.1869
    132  C          4.4390    4.5960   10.2630 C.2   163  GLY163      0.2309
    133  O          5.5470    5.1260   10.5110 O.2   163  GLY163     -0.2863
    134  N         12.1360    6.4560   15.8470 N.3   184  TRP184     -0.1241
    135  CA        12.5530    7.5460   16.7220 C.3   184  TRP184      0.1605
    136  C         13.7390    7.2090   17.6210 C.2   184  TRP184      0.2264
    137  O         13.8430    7.7810   18.7140 O.2   184  TRP184     -0.2867
    138  CB        11.3530    8.0440   17.5800 C.3   184  TRP184      0.0550
    139  CG        10.2070    8.6680   16.8110 C.ar  184  TRP184      0.0003
    140  CD1       10.1200    8.9330   15.4740 C.ar  184  TRP184      0.0946
    141  CD2        8.9640    9.1280   17.4010 C.ar  184  TRP184      0.0152
    142  NE1        8.8820    9.5190   15.2010 N.ar  184  TRP184     -0.2442
    143  CE2        8.1650    9.6370   16.3730 C.ar  184  TRP184      0.0810
    144  CE3        8.4740    9.1130   18.7100 C.ar  184  TRP184      0.0012
    145  CZ2        6.8930   10.1500   16.6430 C.ar  184  TRP184      0.0191
    146  CZ3        7.1880    9.6320   18.9530 C.ar  184  TRP184      0.0001
    147  CH2        6.4020   10.1470   17.9260 C.ar  184  TRP184      0.0015
    148  N         -5.7320    1.6460    8.1660 N.3   208  GLU208     -0.1245
    149  CA        -4.9080    1.6680    6.9550 C.3   208  GLU208      0.1567
    150  C         -3.7150    0.7060    7.0490 C.2   208  GLU208      0.2260
    151  O         -2.5390    1.0990    7.0970 O.2   208  GLU208     -0.2867
    152  CB        -4.4070    3.0830    6.6250 C.3   208  GLU208      0.0388
    153  CG        -5.4330    4.1060    6.2460 C.3   208  GLU208      0.1160
    154  CD        -6.0550    3.9030    4.8830 C.2   208  GLU208      0.3649
    155  OE1       -7.1650    4.4600    4.6690 O.co2 208  GLU208     -0.2457
    156  OE2       -5.4120    3.2160    4.0570 O.co2 208  GLU208     -0.2457
@<TRIPOS>BOND
     1    40    38    1
     2    38    35    1
     3    38    39    1
     4    34    35    1
     5    35    36    1
     6    36    37    2
     7    36    41   am
     8    94    93    2
     9    41    42    1
    10    44    43    2
    11    97    96    2
    12    93    92    1
    13    98    96   am
    14    96    95    1
    15    92    95    1
    16    92    91    1
    17    42    43    1
    18    42    45    1
    19    43    49   am
    20    48    46   ar
    21    45    46    1
    22    46    47   ar
    23    54    53    1
    24    49    50    1
    25    50    53    1
    26    50    51    1
    27    51    52    2
    28    33    32   ar
    29    33    31   ar
    30    81    80    1
    31    86    85    2
    32    32    30   ar
    33    78    77    2
    34    79    80    1
    35    79    76    1
    36    85    84    1
    37    31    29   ar
    38    80    82    1
    39    30    27   ar
    40    75    76    1
    41    75    73   am
    42    77    76    1
    43    77    83   am
    44    70    69    2
    45    72    73    1
    46    72    71    1
    47    29    27   ar
    48    29    28   ar
    49    84    83    1
    50    84    87    1
    51    73    74    2
    52    55    56    1
    53    27    25   ar
    54    65    66    1
    55    65    62    1
    56    69    71   am
    57    69    68    1
    58    28    26   ar
    59    61    62    1
    60    61    57   am
    61    87    88    1
    62    62    63    1
    63    67    63   am
    64    67    68    1
    65    63    64    2
    66    25    26   ar
    67    25    24    1
    68    56    59    1
    69    56    57    1
    70   156   154   ar
    71    60    59    1
    72    57    58    2
    73    24    21    1
    74    23    22    2
    75    88    89    1
    76   155   154   ar
    77    22    21    1
    78   154   153    1
    79    21    20    1
    80    89    90    1
    81    13    12    2
    82   153   152    1
    83    20    16   am
    84    12    11    1
    85   152   149    1
    86   149   150    1
    87   149   148    1
    88   150   151    2
    89    10    11    1
    90    16    17    2
    91    16    15    1
    92    14    15    1
    93    15    18    1
    94    19    18    1
    95   110   109    1
    96   103   100    1
    97   131   130    1
    98   131   132    1
    99    99   100    1
   100     4     3    2
   101   107   106    2
   102   108   109    1
   103   108   105    1
   104   100   101    1
   105   130   122   am
   106   109   111    1
   107   132   133    2
   108     5     2    1
   109     5     6    1
   110   115   114    2
   111     2     3    1
   112     2     1    1
   113   106   105    1
   114   106   112   am
   115     9     7   am
   116   122   123    2
   117   122   121    1
   118   114   113    1
   119   114   120   am
   120   113   112    1
   121   113   116    1
   122   120   121    1
   123   105   104    1
   124   121   124    1
   125   101   102    2
   126     7     6    1
   127     7     8    2
   128   116   117    1
   129   126   128   ar
   130   126   125   ar
   131   124   125    1
   132   128   129   ar
   133   125   127   ar
   134   117   119   ar
   135   117   118   ar
   136   129   127   ar
   137   142   140   ar
   138   142   143   ar
   139   140   139   ar
   140   134   135    1
   141   143   145   ar
   142   143   141   ar
   143   145   147   ar
   144   135   138    1
   145   135   136    1
   146   139   141   ar
   147   139   138    1
   148   141   144   ar
   149   136   137    2
   150   147   146   ar
   151   144   146   ar
