@<TRIPOS>MOLECULE
tmp/1me4A00.pdb
 171 167 0 0 0
SMALL
GASTEIGER

@<TRIPOS>ATOM
      1  N         14.4740    8.4660   11.8020 N.3    19  GLN19      -0.1245
      2  CA        14.1010    9.2740   10.6350 C.3    19  GLN19       0.1566
      3  C         14.6800   10.7000   10.6820 C.2    19  GLN19       0.2260
      4  O         14.7300   11.3970    9.6490 O.2    19  GLN19      -0.2867
      5  CB        12.5860    9.3180   10.4530 C.3    19  GLN19       0.0367
      6  CG        11.8430   10.0650   11.5660 C.3    19  GLN19       0.0905
      7  CD        10.3370    9.9530   11.3650 C.2    19  GLN19       0.2608
      8  OE1        9.7110    8.9810   11.7970 O.2    19  GLN19      -0.2717
      9  NE2        9.7140   10.9480   10.6740 N.am   19  GLN19      -0.0878
     10  N         15.0460   14.7190   11.2150 N.3    21  GLN21      -0.1231
     11  CA        14.1800   15.8790   11.0370 C.3    21  GLN21       0.1698
     12  C         13.3220   15.8230    9.8040 C.2    21  GLN21       0.2592
     13  O         12.5050   16.7120    9.4930 O.2    21  GLN21      -0.2718
     14  CB        15.0810   17.1300   10.9470 C.3    21  GLN21       0.0381
     15  CG        15.9390   17.3350   12.1940 C.3    21  GLN21       0.0905
     16  CD        15.1980   17.7190   13.4280 C.2    21  GLN21       0.2608
     17  OE1       15.5310   17.2860   14.5350 O.2    21  GLN21      -0.2717
     18  NE2       14.1820   18.5630   13.3560 N.am   21  GLN21      -0.0878
     19  N         13.3300   14.8040    9.0240 N.am   22  CYS22      -0.1956
     20  CA        12.5360   14.5800    7.8310 C.3    22  CYS22       0.1843
     21  C         11.1850   13.9370    8.1520 C.2    22  CYS22       0.2626
     22  O         11.0580   13.0210    8.9530 O.2    22  CYS22      -0.2714
     23  CB        13.3640   13.7030    6.9110 C.3    22  CYS22       0.0997
     24  SG        12.7360   13.2930    5.3030 S.3    22  CYS22      -0.0797
     25  N         10.1480   14.3620    7.4090 N.am   23  GLY23      -0.1954
     26  CA         8.8340   13.7450    7.4340 C.3    23  GLY23       0.1869
     27  C          8.7410   12.4920    6.5550 C.2    23  GLY23       0.2309
     28  O          7.9240   12.3650    5.6330 O.2    23  GLY23      -0.2863
     29  N          8.4570    9.1120    7.7540 N.3    25  CYS25      -0.1221
     30  CA         7.9170    7.9290    8.4140 C.3    25  CYS25       0.1808
     31  C          7.2840    6.9150    7.4450 C.2    25  CYS25       0.2601
     32  O          7.4450    5.6950    7.6260 O.2    25  CYS25      -0.2717
     33  CB         6.9150    8.3720    9.5670 C.3    25  CYS25       0.0970
     34  SG         5.3970    9.1710    8.8580 S.3    25  CYS25      -0.0800
     35  N          6.5970    7.4380    6.4340 N.am   26  TRP26      -0.1976
     36  CA         5.9870    6.5950    5.3940 C.3    26  TRP26       0.1640
     37  C          6.9880    5.6540    4.7240 C.2    26  TRP26       0.2290
     38  O          6.6600    4.4950    4.3720 O.2    26  TRP26      -0.2864
     39  CB         5.2740    7.5240    4.3780 C.3    26  TRP26       0.0576
     40  CG         6.1970    8.4740    3.6650 C.ar   26  TRP26       0.0006
     41  CD1        6.6220    9.7000    4.0940 C.ar   26  TRP26       0.0946
     42  CD2        6.8480    8.2790    2.3960 C.ar   26  TRP26       0.0152
     43  NE1        7.4860   10.2940    3.1890 N.ar   26  TRP26      -0.2442
     44  CE2        7.6210    9.4270    2.1350 C.ar   26  TRP26       0.0810
     45  CE3        6.8490    7.2730    1.4040 C.ar   26  TRP26       0.0012
     46  CZ2        8.3940    9.6220    0.9820 C.ar   26  TRP26       0.0191
     47  CZ3        7.6270    7.4590    0.2620 C.ar   26  TRP26       0.0001
     48  CH2        8.3810    8.6020    0.0610 C.ar   26  TRP26       0.0015
     49  N          5.7590   10.1990   -6.6340 N.3    59  THR59      -0.1203
     50  CA         4.3460   10.0470   -6.3040 C.3    59  THR59       0.1994
     51  C          4.0850   10.2850   -4.8240 C.2    59  THR59       0.2618
     52  O          2.8980   10.3430   -4.4030 O.2    59  THR59      -0.2717
     53  CB         3.7360    8.7240   -6.7720 C.3    59  THR59       0.1784
     54  OG1        4.0350    7.6820   -5.8020 O.3    59  THR59      -0.2211
     55  CG2        4.2260    8.3170   -8.1470 C.3    59  THR59       0.0376
     56  N          5.1400   10.4490   -4.0220 N.am   60  ASP60      -0.1959
     57  CA         5.1090   10.8780   -2.6270 C.3    60  ASP60       0.1840
     58  C          5.8730   12.1950   -2.5130 C.2    60  ASP60       0.2622
     59  O          6.3340   12.7140   -3.5460 O.2    60  ASP60      -0.2715
     60  CB         5.6250    9.7190   -1.7400 C.3    60  ASP60       0.1450
     61  CG         4.5570    8.6200   -1.6840 C.2    60  ASP60       0.3671
     62  OD1        3.4610    8.9350   -1.1860 O.co2  60  ASP60      -0.2456
     63  OD2        4.8030    7.4430   -2.1250 O.co2  60  ASP60      -0.2456
     64  N          5.9520   12.7650   -1.3090 N.am   61  SER61      -0.1950
     65  CA         6.4330   14.1580   -1.1200 C.3    61  SER61       0.1924
     66  C          7.6270   14.2800   -0.2120 C.2    61  SER61       0.2314
     67  O          7.7880   15.2620    0.5430 O.2    61  SER61      -0.2863
     68  CB         5.2710   15.0200   -0.6700 C.3    61  SER61       0.2116
     69  OG         4.3010   15.1770   -1.7680 O.3    61  SER61      -0.2180
     70  N         10.4290   14.7440    2.3140 N.3    63  CYS63      -0.1221
     71  CA        10.3780   15.0900    3.7250 C.3    63  CYS63       0.1808
     72  C          9.1060   15.8350    4.1490 C.2    63  CYS63       0.2602
     73  O          8.9870   16.1400    5.3320 O.2    63  CYS63      -0.2717
     74  CB        11.6420   15.8840    4.1350 C.3    63  CYS63       0.0970
     75  SG        13.1840   14.9150    4.1200 S.3    63  CYS63      -0.0800
     76  N          8.1680   16.0410    3.2100 N.am   64  SER64      -0.1938
     77  CA         6.8600   16.5840    3.5600 C.3    64  SER64       0.2055
     78  C          5.8000   15.5170    3.7630 C.2    64  SER64       0.2644
     79  O          4.6530   15.8520    4.1110 O.2    64  SER64      -0.2714
     80  CB         6.3820   17.5660    2.5050 C.3    64  SER64       0.2130
     81  OG         7.2200   18.6750    2.3150 O.3    64  SER64      -0.2179
     82  N          6.0530   14.2550    3.5480 N.am   65  GLY65      -0.1939
     83  CA         5.1210   13.1670    3.8000 C.3    65  GLY65       0.2014
     84  C          4.8710   12.2760    2.5960 C.2    65  GLY65       0.2639
     85  O          5.3200   12.5410    1.4850 O.2    65  GLY65      -0.2714
     86  N          4.0570   11.2180    2.8530 N.am   66  GLY66      -0.1939
     87  CA         3.7230   10.2630    1.7970 C.3    66  GLY66       0.2014
     88  C          2.8460    9.1540    2.3440 C.2    66  GLY66       0.2639
     89  O          2.5180    9.1210    3.5380 O.2    66  GLY66      -0.2714
     90  N          2.4980    8.2120    1.4700 N.am   67  LEU67      -0.1963
     91  CA         1.6170    7.0820    1.7650 C.3    67  LEU67       0.1728
     92  C          2.3290    5.7750    1.4560 C.2    67  LEU67       0.2616
     93  O          2.8800    5.6170    0.3450 O.2    67  LEU67      -0.2715
     94  CB         0.2990    7.1580    0.9280 C.3    67  LEU67       0.0311
     95  CG        -0.4980    8.4400    1.0870 C.3    67  LEU67       0.0022
     96  CD1       -1.6540    8.5040    0.0670 C.3    67  LEU67       0.0001
     97  CD2       -1.0180    8.6230    2.5020 C.3    67  LEU67       0.0001
     98  N          2.3030    4.8070    2.3650 N.am   68  MET68      -0.1977
     99  CA         2.9120    3.5100    2.1280 C.3    68  MET68       0.1605
    100  C          2.3720    2.8310    0.8370 C.2    68  MET68       0.2287
    101  O          3.1560    2.2410    0.0820 O.2    68  MET68      -0.2864
    102  CB         2.8290    2.5970    3.3310 C.3    68  MET68       0.0413
    103  CG         3.5870    3.0110    4.5780 C.3    68  MET68       0.0598
    104  SD         2.7750    4.3540    5.5600 S.3    68  MET68      -0.1393
    105  CE         1.5530    3.3690    6.4580 C.3    68  MET68       0.0692
    106  N          1.2090    4.2810   -1.8680 N.3    70  ASN70      -0.1240
    107  CA         1.8090    4.9180   -3.0420 C.3    70  ASN70       0.1653
    108  C          3.2280    4.3790   -3.2620 C.2    70  ASN70       0.2266
    109  O          3.6530    4.1170   -4.4030 O.2    70  ASN70      -0.2867
    110  CB         1.8670    6.4390   -2.9390 C.3    70  ASN70       0.1155
    111  CG         0.5790    7.2110   -3.1630 C.2    70  ASN70       0.2627
    112  OD1       -0.4900    6.6580   -3.3170 O.2    70  ASN70      -0.2716
    113  ND2        0.7370    8.5310   -3.1620 N.am   70  ASN70      -0.0877
    114  N         -0.6750    2.9010    9.5290 N.3   138  ALA138     -0.1245
    115  CA        -0.7170    4.2940    9.9570 C.3   138  ALA138      0.1562
    116  C         -1.3960    4.4010   11.3380 C.2   138  ALA138      0.2260
    117  O         -2.3530    3.6570   11.6540 O.2   138  ALA138     -0.2867
    118  CB        -1.4230    5.1920    8.9340 C.3   138  ALA138      0.0290
    119  N         -5.0630   10.1080   11.4980 N.3   160  LEU160     -0.1231
    120  CA        -3.8610    9.4010   11.1020 C.3   160  LEU160      0.1693
    121  C         -2.7680   10.4110   10.6890 C.2   160  LEU160      0.2592
    122  O         -3.0420   11.3200    9.8830 O.2   160  LEU160     -0.2718
    123  CB        -4.1400    8.4300    9.9570 C.3   160  LEU160      0.0284
    124  CG        -5.0210    7.2230   10.2310 C.3   160  LEU160      0.0019
    125  CD1       -5.3170    6.5280    8.8710 C.3   160  LEU160      0.0001
    126  CD2       -4.4430    6.2680   11.2320 C.3   160  LEU160      0.0001
    127  N         -1.5230   10.2490   11.1730 N.am  161  ASP161     -0.1960
    128  CA        -0.4200   11.1470   10.8310 C.3   161  ASP161      0.1840
    129  C          0.9650   10.5160   10.8040 C.2   161  ASP161      0.2622
    130  O          1.9420   11.2320   10.5820 O.2   161  ASP161     -0.2715
    131  CB        -0.4630   12.3870   11.7410 C.3   161  ASP161      0.1450
    132  CG        -0.1280   12.1430   13.1920 C.2   161  ASP161      0.3671
    133  OD1        0.1780   10.9780   13.5480 O.co2 161  ASP161     -0.2456
    134  OD2       -0.2130   13.0930   14.0170 O.co2 161  ASP161     -0.2456
    135  N          1.1060    9.2000   11.0320 N.am  162  HIS162     -0.1959
    136  CA         2.4220    8.5670   11.2640 C.3   162  HIS162      0.1787
    137  C          2.4170    7.1320   10.8030 C.2   162  HIS162      0.2620
    138  O          1.6300    6.3170   11.2600 O.2   162  HIS162     -0.2715
    139  CB         2.7330    8.7010   12.7600 C.3   162  HIS162      0.0785
    140  CG         4.1150    8.2880   13.1650 C.ar  162  HIS162      0.0821
    141  ND1        5.2290    8.8050   12.5740 N.ar  162  HIS162     -0.2267
    142  CD2        4.5610    7.3980   14.1120 C.ar  162  HIS162      0.1154
    143  CE1        6.3140    8.2430   13.1380 C.ar  162  HIS162      0.1986
    144  NE2        5.9300    7.3620   14.0850 N.ar  162  HIS162     -0.2212
    145  N          3.3420    6.7580    9.9350 N.am  163  GLY163     -0.1954
    146  CA         3.5030    5.3850    9.4840 C.3   163  GLY163      0.1869
    147  C          4.5530    4.6040   10.2860 C.2   163  GLY163      0.2309
    148  O          5.6260    5.1250   10.5210 O.2   163  GLY163     -0.2863
    149  N         12.1700    6.4320   15.8850 N.3   184  TRP184     -0.1241
    150  CA        12.5590    7.5390   16.7600 C.3   184  TRP184      0.1605
    151  C         13.7650    7.2110   17.6370 C.2   184  TRP184      0.2264
    152  O         13.8990    7.7970   18.7360 O.2   184  TRP184     -0.2867
    153  CB        11.3750    8.0230   17.6270 C.3   184  TRP184      0.0550
    154  CG        10.2590    8.6890   16.8430 C.ar  184  TRP184      0.0003
    155  CD1       10.1470    8.9950   15.5260 C.ar  184  TRP184      0.0946
    156  CD2        9.0460    9.1460   17.4640 C.ar  184  TRP184      0.0152
    157  NE1        8.9170    9.6120   15.2900 N.ar  184  TRP184     -0.2442
    158  CE2        8.2280    9.7150   16.4660 C.ar  184  TRP184      0.0810
    159  CE3        8.5650    9.1310   18.7810 C.ar  184  TRP184      0.0012
    160  CZ2        6.9680   10.2470   16.7500 C.ar  184  TRP184      0.0191
    161  CZ3        7.3200    9.6590   19.0540 C.ar  184  TRP184      0.0001
    162  CH2        6.5270   10.2180   18.0470 C.ar  184  TRP184      0.0015
    163  N         -5.5690    1.7300    8.1310 N.3   208  GLU208     -0.1245
    164  CA        -4.7320    1.7800    6.9490 C.3   208  GLU208      0.1567
    165  C         -3.5700    0.7860    7.0430 C.2   208  GLU208      0.2260
    166  O         -2.3900    1.1580    7.0770 O.2   208  GLU208     -0.2867
    167  CB        -4.2190    3.1950    6.6440 C.3   208  GLU208      0.0388
    168  CG        -5.2010    4.2310    6.2540 C.3   208  GLU208      0.1160
    169  CD        -5.8770    4.0180    4.9130 C.2   208  GLU208      0.3649
    170  OE1       -5.2750    3.3430    4.0590 O.co2 208  GLU208     -0.2457
    171  OE2       -7.0090    4.5270    4.7620 O.co2 208  GLU208     -0.2457
@<TRIPOS>BOND
     1    55    53    1
     2    53    50    1
     3    53    54    1
     4    49    50    1
     5    50    51    1
     6    51    52    2
     7    51    56   am
     8   109   108    2
     9    56    57    1
    10    59    58    2
    11   112   111    2
    12   108   107    1
    13   111   113   am
    14   111   110    1
    15   107   110    1
    16   107   106    1
    17    57    58    1
    18    57    60    1
    19    58    64   am
    20    63    61   ar
    21    69    68    1
    22    60    61    1
    23    61    62   ar
    24    64    65    1
    25    65    68    1
    26    65    66    1
    27    66    67    2
    28    48    47   ar
    29    48    46   ar
    30    96    95    1
    31   101   100    2
    32    47    45   ar
    33    93    92    2
    34   100    99    1
    35    94    95    1
    36    94    91    1
    37    46    44   ar
    38    95    97    1
    39    45    42   ar
    40    92    91    1
    41    92    98   am
    42    90    91    1
    43    90    88   am
    44    85    84    2
    45    87    88    1
    46    87    86    1
    47    99    98    1
    48    99   102    1
    49    44    42   ar
    50    44    43   ar
    51    70    71    1
    52    81    80    1
    53    88    89    2
    54    42    40   ar
    55    80    77    1
    56    84    86   am
    57    84    83    1
    58    43    41   ar
    59    76    77    1
    60    76    72   am
    61   102   103    1
    62    82    78   am
    63    82    83    1
    64    77    78    1
    65    40    41   ar
    66    40    39    1
    67    71    74    1
    68    71    72    1
    69    78    79    2
    70   170   169   ar
    71    75    74    1
    72    75    24    1
    73    72    73    2
    74    38    37    2
    75    39    36    1
    76   103   104    1
    77    37    36    1
    78   171   169   ar
    79   169   168    1
    80    24    23    1
    81    36    35    1
    82   104   105    1
    83    28    27    2
    84   168   167    1
    85    35    31   am
    86    27    26    1
    87   167   164    1
    88    23    20    1
    89   164   165    1
    90   164   163    1
    91   165   166    2
    92    25    26    1
    93    25    21   am
    94    31    32    2
    95    31    30    1
    96    29    30    1
    97    20    21    1
    98    20    19    1
    99    21    22    2
   100    30    33    1
   101    34    33    1
   102   125   124    1
   103   118   115    1
   104    19    12   am
   105   146   145    1
   106   146   147    1
   107    13    12    2
   108   114   115    1
   109     4     3    2
   110    12    11    1
   111   122   121    2
   112   145   137   am
   113   123   124    1
   114   123   120    1
   115   115   116    1
   116   124   126    1
   117   147   148    2
   118     5     2    1
   119     5     6    1
   120   130   129    2
   121     2     3    1
   122     2     1    1
   123     9     7   am
   124   121   120    1
   125   121   127   am
   126   137   138    2
   127   137   136    1
   128   129   128    1
   129   129   135   am
   130   128   127    1
   131   128   131    1
   132    14    11    1
   133    14    15    1
   134   135   136    1
   135    11    10    1
   136   120   119    1
   137   136   139    1
   138   116   117    2
   139     7     6    1
   140     7     8    2
   141   131   132    1
   142    15    16    1
   143   141   143   ar
   144   141   140   ar
   145   139   140    1
   146   143   144   ar
   147   140   142   ar
   148   132   133   ar
   149   132   134   ar
   150    18    16   am
   151    16    17    2
   152   144   142   ar
   153   157   155   ar
   154   157   158   ar
   155   155   154   ar
   156   149   150    1
   157   158   160   ar
   158   158   156   ar
   159   160   162   ar
   160   150   153    1
   161   150   151    1
   162   154   156   ar
   163   154   153    1
   164   156   159   ar
   165   151   152    2
   166   162   161   ar
   167   159   161   ar
