@<TRIPOS>MOLECULE
tmp/1me7A00.pdb
 183 174 0 0 0
SMALL
GASTEIGER

@<TRIPOS>ATOM
      1  N         65.8910   47.6970   16.1150 N.3    56  ALA56      -0.1231
      2  CA        64.6540   48.4190   16.3950 C.3    56  ALA56       0.1694
      3  C         63.3610   47.7560   15.9070 C.2    56  ALA56       0.2592
      4  O         63.3510   47.0120   14.9220 O.2    56  ALA56      -0.2718
      5  CB        64.7640   49.8330   15.8360 C.3    56  ALA56       0.0304
      6  N         62.2770   48.0470   16.6200 N.am   57  ILE57      -0.1966
      7  CA        60.9500   47.5110   16.3280 C.3    57  ILE57       0.1727
      8  C         60.3800   48.3250   15.1730 C.2    57  ILE57       0.2616
      9  O         59.4630   49.1290   15.3590 O.2    57  ILE57      -0.2715
     10  CB        60.0320   47.6540   17.5780 C.3    57  ILE57       0.0290
     11  CG1       60.8270   47.2770   18.8350 C.3    57  ILE57       0.0022
     12  CG2       58.8000   46.7590   17.4440 C.3    57  ILE57       0.0023
     13  CD1       60.0680   47.4280   20.1350 C.3    57  ILE57       0.0001
     14  N         60.9310   48.1110   13.9820 N.am   58  MET58      -0.1977
     15  CA        60.5230   48.8700   12.8030 C.3    58  MET58       0.1605
     16  C         60.3630   48.0240   11.5450 C.2    58  MET58       0.2287
     17  O         61.1510   47.1070   11.2870 O.2    58  MET58      -0.2864
     18  CB        61.5540   49.9710   12.5250 C.3    58  MET58       0.0413
     19  CG        61.8510   50.8870   13.7060 C.3    58  MET58       0.0598
     20  SD        63.1810   52.0510   13.3230 S.3    58  MET58      -0.1393
     21  CE        62.4010   53.0570   12.0810 C.3    58  MET58       0.0692
     22  N         55.9050   48.8860   22.1430 N.3   148  ASP148     -0.1239
     23  CA        56.4720   49.8730   21.2360 C.3   148  ASP148      0.1674
     24  C         55.7000   51.1970   21.3180 C.2   148  ASP148      0.2266
     25  O         54.5490   51.2750   20.8870 O.2   148  ASP148     -0.2867
     26  CB        56.4220   49.2660   19.8260 C.3   148  ASP148      0.1410
     27  CG        56.9770   50.1790   18.7560 C.2   148  ASP148      0.3668
     28  OD1       57.8420   51.0250   19.0610 O.co2 148  ASP148     -0.2456
     29  OD2       56.5530   50.0250   17.5910 O.co2 148  ASP148     -0.2456
     30  N         58.9750   54.2100   25.5600 N.3   178  ASN178     -0.1240
     31  CA        60.1990   54.8040   26.0950 C.3   178  ASN178      0.1653
     32  C         59.9640   55.8990   27.1340 C.2   178  ASN178      0.2266
     33  O         58.9360   56.5770   27.1230 O.2   178  ASN178     -0.2867
     34  CB        61.0190   55.4050   24.9430 C.3   178  ASN178      0.1155
     35  CG        61.5010   54.3540   23.9580 C.2   178  ASN178      0.2627
     36  OD1       60.9810   53.2400   23.9230 O.2   178  ASN178     -0.2716
     37  ND2       62.4950   54.7080   23.1470 N.am  178  ASN178     -0.0877
     38  N         63.0160   50.7940   28.1090 N.3   197  LYS197     -0.1245
     39  CA        63.6490   51.4560   26.9770 C.3   197  LYS197      0.1561
     40  C         63.7300   52.9750   27.1660 C.2   197  LYS197      0.2260
     41  O         62.7460   53.6300   27.5150 O.2   197  LYS197     -0.2867
     42  CB        62.8990   51.0920   25.6930 C.3   197  LYS197      0.0271
     43  CG        63.7870   50.9850   24.4610 C.3   197  LYS197      0.0035
     44  CD        63.3960   49.7970   23.5720 C.3   197  LYS197      0.0206
     45  CE        62.0170   49.9790   22.9640 C.3   197  LYS197      0.1093
     46  NZ        61.9280   51.2680   22.2190 N.3   197  LYS197     -0.1314
     47  N         64.6900   56.8520   25.6920 N.3   199  GLY199     -0.1225
     48  CA        64.8560   57.6600   24.5020 C.3   199  GLY199      0.1811
     49  C         63.6370   58.2020   23.7980 C.2   199  GLY199      0.2280
     50  O         62.7390   57.4600   23.4120 O.2   199  GLY199     -0.2866
     51  N         66.2020   59.3200   17.8180 N.3   203  GLY203     -0.1210
     52  CA        66.1740   58.6150   16.5420 C.3   203  GLY203      0.1956
     53  C         66.5780   59.4460   15.3300 C.2   203  GLY203      0.2613
     54  O         66.2120   60.6170   15.2160 O.2   203  GLY203     -0.2717
     55  N         67.3280   58.8380   14.4150 N.am  204  SER204     -0.1938
     56  CA        67.7860   59.5290   13.2110 C.3   204  SER204      0.2055
     57  C         66.6260   59.9870   12.3310 C.2   204  SER204      0.2643
     58  O         66.7110   61.0220   11.6670 O.2   204  SER204     -0.2714
     59  CB        68.7140   58.6210   12.3950 C.3   204  SER204      0.2130
     60  OG        68.0010   57.5560   11.7870 O.3   204  SER204     -0.2179
     61  N         65.5470   59.2120   12.3240 N.am  205  ILE205     -0.1963
     62  CA        64.3760   59.5420   11.5170 C.3   205  ILE205      0.1727
     63  C         63.2590   60.1920   12.3270 C.2   205  ILE205      0.2616
     64  O         62.0980   60.1850   11.9130 O.2   205  ILE205     -0.2715
     65  CB        63.8150   58.2860   10.8050 C.3   205  ILE205      0.0290
     66  CG1       63.9830   57.0510   11.6980 C.3   205  ILE205      0.0022
     67  CG2       64.5290   58.0800    9.4750 C.3   205  ILE205      0.0023
     68  CD1       63.3260   57.1620   13.0490 C.3   205  ILE205      0.0001
     69  N         63.6170   60.7550   13.4780 N.am  206  CYS206     -0.1968
     70  CA        62.6510   61.4170   14.3500 C.3   206  CYS206      0.1712
     71  C         62.9580   62.9110   14.4480 C.2   206  CYS206      0.2296
     72  O         64.0910   63.3000   14.7310 O.2   206  CYS206     -0.2864
     73  CB        62.6860   60.7890   15.7460 C.3   206  CYS206      0.0983
     74  SG        61.4650   61.4640   16.8990 S.3   206  CYS206     -0.0798
     75  N         67.8310   53.5940   23.4510 N.3   245  ASP245     -0.1225
     76  CA        67.2150   53.4870   22.1240 C.3   245  ASP245      0.1805
     77  C         67.2690   54.7730   21.2940 C.2   245  ASP245      0.2598
     78  O         66.6040   55.7580   21.6080 O.2   245  ASP245     -0.2718
     79  CB        65.7620   53.0190   22.3050 C.3   245  ASP245      0.1424
     80  CG        64.9780   52.9600   21.0070 C.2   245  ASP245      0.3668
     81  OD1       65.5800   52.8350   19.9200 O.co2 245  ASP245     -0.2456
     82  OD2       63.7340   53.0220   21.0860 O.co2 245  ASP245     -0.2456
     83  N         68.0810   54.7510   20.2400 N.am  246  GLY246     -0.1942
     84  CA        68.1930   55.8990   19.3570 C.3   246  GLY246      0.2014
     85  C         69.3100   56.8780   19.6590 C.2   246  GLY246      0.2639
     86  O         69.8540   56.9010   20.7610 O.2   246  GLY246     -0.2714
     87  N         69.6620   57.6810   18.6590 N.am  247  GLY247     -0.1939
     88  CA        70.7060   58.6730   18.8310 C.3   247  GLY247      0.2014
     89  C         72.1230   58.1980   18.5810 C.2   247  GLY247      0.2638
     90  O         73.0550   58.9870   18.6950 O.2   247  GLY247     -0.2714
     91  N         72.3050   56.9230   18.2560 N.am  248  ILE248     -0.1977
     92  CA        73.6460   56.4100   17.9960 C.3   248  ILE248      0.1596
     93  C         74.0520   56.8020   16.5810 C.2   248  ILE248      0.2287
     94  O         73.4700   56.3220   15.6090 O.2   248  ILE248     -0.2864
     95  CB        73.7140   54.8620   18.1070 C.3   248  ILE248      0.0276
     96  CG1       73.3920   54.4120   19.5380 C.3   248  ILE248      0.0022
     97  CG2       75.0950   54.3660   17.6850 C.3   248  ILE248      0.0022
     98  CD1       74.4290   54.7920   20.5650 C.3   248  ILE248      0.0001
     99  N         69.5110   49.8290   21.3490 N.3   266  MET266     -0.1230
    100  CA        68.5810   49.5310   20.2650 C.3   266  MET266      0.1702
    101  C         68.9130   50.4610   19.0950 C.2   266  MET266      0.2592
    102  O         69.0100   51.6690   19.2680 O.2   266  MET266     -0.2718
    103  CB        67.1220   49.7490   20.6940 C.3   266  MET266      0.0401
    104  CG        66.1390   49.5470   19.5380 C.3   266  MET266      0.0596
    105  SD        64.3860   49.4600   19.9610 S.3   266  MET266     -0.1393
    106  CE        64.2460   47.7430   20.4610 C.3   266  MET266      0.0692
    107  N         69.0900   49.9010   17.9060 N.am  267  LEU267     -0.1966
    108  CA        69.4160   50.7200   16.7460 C.3   267  LEU267      0.1728
    109  C         68.5210   50.4290   15.5530 C.2   267  LEU267      0.2617
    110  O         68.1000   49.2930   15.3430 O.2   267  LEU267     -0.2715
    111  CB        70.8790   50.5140   16.3310 C.3   267  LEU267      0.0311
    112  CG        71.9750   50.7520   17.3730 C.3   267  LEU267      0.0022
    113  CD1       72.0670   49.5320   18.2820 C.3   267  LEU267      0.0001
    114  CD2       73.3190   50.9660   16.6790 C.3   267  LEU267      0.0001
    115  N         68.2410   51.4690   14.7750 N.am  268  GLY268     -0.1940
    116  CA        67.4140   51.3210   13.5890 C.3   268  GLY268      0.2014
    117  C         68.2370   51.5610   12.3380 C.2   268  GLY268      0.2639
    118  O         68.5190   50.6350   11.5800 O.2   268  GLY268     -0.2714
    119  N         68.6300   52.8130   12.1320 N.am  269  ARG269     -0.1963
    120  CA        69.4310   53.2200   10.9780 C.3   269  ARG269      0.1729
    121  C         70.6430   52.2970   10.7650 C.2   269  ARG269      0.2616
    122  O         70.8790   51.8010    9.6600 O.2   269  ARG269     -0.2715
    123  CB        69.9050   54.6660   11.1810 C.3   269  ARG269      0.0348
    124  CG        70.7390   55.2380   10.0390 C.3   269  ARG269      0.0492
    125  CD        71.4680   56.5130   10.4660 C.3   269  ARG269      0.2205
    126  NE        72.4180   56.2590   11.5520 N.pl3 269  ARG269     -0.0865
    127  CZ        73.5400   55.5520   11.4230 C.cat 269  ARG269      0.5346
    128  NH1       73.8710   55.0230   10.2490 N.pl3 269  ARG269      0.1354
    129  NH2       74.3270   55.3590   12.4780 N.pl3 269  ARG269      0.1354
    130  N         71.4050   52.0800   11.8340 N.am  270  TYR270     -0.1974
    131  CA        72.5950   51.2300   11.7980 C.3   270  TYR270      0.1639
    132  C         72.3240   49.8930   11.1080 C.2   270  TYR270      0.2290
    133  O         73.0820   49.4800   10.2290 O.2   270  TYR270     -0.2864
    134  CB        73.0910   50.9750   13.2300 C.3   270  TYR270      0.0560
    135  CG        74.3150   50.0900   13.3280 C.ar  270  TYR270     -0.0198
    136  CD1       75.6030   50.6280   13.2750 C.ar  270  TYR270     -0.0009
    137  CD2       74.1850   48.7110   13.4760 C.ar  270  TYR270     -0.0009
    138  CE1       76.7280   49.8110   13.3700 C.ar  270  TYR270      0.0417
    139  CE2       75.2930   47.8890   13.5690 C.ar  270  TYR270      0.0417
    140  CZ        76.5640   48.4400   13.5160 C.ar  270  TYR270      0.1957
    141  OH        77.6620   47.6100   13.6040 O.3   270  TYR270     -0.2866
    142  N         64.6610   53.5600    4.2680 N.3   292  TYR292     -0.1241
    143  CA        64.5430   53.6150    5.7080 C.3   292  TYR292      0.1605
    144  C         63.4880   54.6340    6.0710 C.2   292  TYR292      0.2264
    145  O         63.6120   55.8110    5.7440 O.2   292  TYR292     -0.2867
    146  CB        65.8830   53.9920    6.3410 C.3   292  TYR292      0.0534
    147  CG        65.8530   54.0180    7.8510 C.ar  292  TYR292     -0.0201
    148  CD1       65.4160   52.9130    8.5790 C.ar  292  TYR292     -0.0009
    149  CD2       66.2580   55.1500    8.5540 C.ar  292  TYR292     -0.0009
    150  CE1       65.3800   52.9380    9.9720 C.ar  292  TYR292      0.0417
    151  CE2       66.2270   55.1840    9.9460 C.ar  292  TYR292      0.0417
    152  CZ        65.7860   54.0770   10.6460 C.ar  292  TYR292      0.1957
    153  OH        65.7360   54.1260   12.0180 O.3   292  TYR292     -0.2866
    154  N         60.5680   55.8000    9.3070 N.3   294  GLY294     -0.1210
    155  CA        60.1780   55.6400   10.6930 C.3   294  GLY294      0.1956
    156  C         58.7720   55.0850   10.8250 C.2   294  GLY294      0.2612
    157  O         57.9910   55.1010    9.8740 O.2   294  GLY294     -0.2717
    158  N         58.4520   54.5890   12.0130 N.am  295  GLU295     -0.1965
    159  CA        57.1380   54.0290   12.2870 C.3   295  GLU295      0.1733
    160  C         56.1000   55.1390   12.3700 C.2   295  GLU295      0.2616
    161  O         54.8990   54.8910   12.2920 O.2   295  GLU295     -0.2715
    162  CB        57.1810   53.2520   13.5990 C.3   295  GLU295      0.0429
    163  CG        58.0250   51.9970   13.5240 C.3   295  GLU295      0.1163
    164  CD        57.3720   50.9200   12.6740 C.2   295  GLU295      0.3649
    165  OE1       56.2800   50.4560   13.0560 O.co2 295  GLU295     -0.2457
    166  OE2       57.9440   50.5400   11.6320 O.co2 295  GLU295     -0.2457
    167  N         56.5760   56.3680   12.5290 N.am  296  GLY296     -0.1955
    168  CA        55.6760   57.5000   12.6190 C.3   296  GLY296      0.1869
    169  C         55.3390   58.0950   11.2650 C.2   296  GLY296      0.2309
    170  O         54.4910   58.9770   11.1740 O.2   296  GLY296     -0.2863
    171  N         55.0270   62.8930   11.3460 N.3   304  GLU304     -0.1231
    172  CA        55.4260   62.2970   12.6170 C.3   304  GLU304      0.1699
    173  C         56.7190   61.4950   12.4390 C.2   304  GLU304      0.2592
    174  O         57.5000   61.3170   13.3790 O.2   304  GLU304     -0.2718
    175  CB        54.3020   61.3960   13.1400 C.3   304  GLU304      0.0402
    176  CG        52.9470   62.1000   13.2270 C.3   304  GLU304      0.1161
    177  CD        51.8520   61.2220   13.8170 C.2   304  GLU304      0.3649
    178  OE1       51.9610   60.8410   15.0040 O.co2 304  GLU304     -0.2457
    179  OE2       50.8810   60.9140   13.0930 O.co2 304  GLU304     -0.2457
    180  N         56.9360   61.0180   11.2180 N.am  305  GLY305     -0.1957
    181  CA        58.1330   60.2580   10.9090 C.3   305  GLY305      0.1869
    182  C         58.6110   60.6530    9.5250 C.2   305  GLY305      0.2309
    183  O         57.9150   61.3860    8.8180 O.2   305  GLY305     -0.2863
@<TRIPOS>BOND
     1   142   143    1
     2   143   144    1
     3   143   146    1
     4   145   144    2
     5   146   147    1
     6   147   149   ar
     7   147   148   ar
     8   149   151   ar
     9   148   150   ar
    10   183   182    2
    11   154   155    1
    12    67    65    1
    13   182   181    1
    14   122   121    2
    15   157   156    2
    16   151   152   ar
    17   150   152   ar
    18   124   125    1
    19   124   123    1
    20   133   132    2
    21   128   127    1
    22   125   126    1
    23   152   153    1
    24   155   156    1
    25   121   120    1
    26   121   130   am
    27    65    62    1
    28    65    66    1
    29   156   158   am
    30   181   180    1
    31   120   123    1
    32   120   119    1
    33   132   131    1
    34   170   169    2
    35   180   173   am
    36   169   168    1
    37    17    16    2
    38   171   172    1
    39   127   126    2
    40   127   129    1
    41    62    61    1
    42    62    63    1
    43    16    15    1
    44   118   117    2
    45   166   164   ar
    46    58    57    2
    47    66    68    1
    48    60    59    1
    49   131   130    1
    50   131   134    1
    51    64    63    2
    52   158   159    1
    53    21    20    1
    54   119   117   am
    55   159   160    1
    56   159   162    1
    57   161   160    2
    58    61    57   am
    59    63    69   am
    60    57    56    1
    61   117   116    1
    62   160   167   am
    63    59    56    1
    64   173   172    1
    65   173   174    2
    66    18    15    1
    67    18    19    1
    68   167   168    1
    69   172   175    1
    70   164   165   ar
    71   164   163    1
    72    15    14    1
    73   179   177   ar
    74   175   176    1
    75    56    55    1
    76   176   177    1
    77   134   135    1
    78   136   135   ar
    79   136   138   ar
    80    20    19    1
    81   135   137   ar
    82   138   140   ar
    83   137   139   ar
    84    69    70    1
    85   140   139   ar
    86   140   141    1
    87   163   162    1
    88   116   115    1
    89   177   178   ar
    90    14     8   am
    91    70    71    1
    92    70    73    1
    93    55    53   am
    94    71    72    2
    95   115   109   am
    96     4     3    2
    97     8     9    2
    98     8     7    1
    99    54    53    2
   100    53    52    1
   101   110   109    2
   102   109   108    1
   103    94    93    2
   104    73    74    1
   105     5     2    1
   106     3     2    1
   107     3     6   am
   108     1     2    1
   109     7     6    1
   110     7    10    1
   111   111   108    1
   112   111   112    1
   113    52    51    1
   114    93    92    1
   115   114   112    1
   116   108   107    1
   117   112   113    1
   118    12    10    1
   119    10    11    1
   120    29    27   ar
   121    97    95    1
   122   107   101   am
   123    92    95    1
   124    92    91    1
   125    95    96    1
   126    91    89   am
   127    89    90    2
   128    89    88    1
   129    87    88    1
   130    87    85   am
   131    27    28   ar
   132    27    26    1
   133    11    13    1
   134   101   102    2
   135   101   100    1
   136    84    85    1
   137    84    83    1
   138    96    98    1
   139   104   105    1
   140   104   103    1
   141    85    86    2
   142    26    23    1
   143    81    80   ar
   144   105   106    1
   145    83    77   am
   146   100   103    1
   147   100    99    1
   148    25    24    2
   149    80    82   ar
   150    80    79    1
   151    23    24    1
   152    23    22    1
   153    77    78    2
   154    77    76    1
   155    76    79    1
   156    76    75    1
   157    46    45    1
   158    45    44    1
   159    37    35   am
   160    50    49    2
   161    44    43    1
   162    49    48    1
   163    36    35    2
   164    35    34    1
   165    43    42    1
   166    48    47    1
   167    34    31    1
   168    30    31    1
   169    42    39    1
   170    31    32    1
   171    39    40    1
   172    39    38    1
   173    33    32    2
   174    40    41    2
