@<TRIPOS>MOLECULE
tmp/1me7A01.pdb
 121 110 0 0 0
SMALL
GASTEIGER

@<TRIPOS>ATOM
      1  N         55.9050   48.8860   22.1430 N.3   148  ASP148     -0.1225
      2  CA        56.4720   49.8730   21.2360 C.3   148  ASP148      0.1805
      3  C         55.7000   51.1970   21.3180 C.2   148  ASP148      0.2598
      4  O         54.5490   51.2750   20.8870 O.2   148  ASP148     -0.2718
      5  CB        56.4220   49.2660   19.8260 C.3   148  ASP148      0.1424
      6  CG        56.9770   50.1790   18.7560 C.2   148  ASP148      0.3668
      7  OD1       57.8420   51.0250   19.0610 O.co2 148  ASP148     -0.2456
      8  OD2       56.5530   50.0250   17.5910 O.co2 148  ASP148     -0.2456
      9  N         56.3280   52.2320   21.8810 N.am  149  SER149     -0.1938
     10  CA        55.6730   53.5350   22.0300 C.3   149  SER149      0.2055
     11  C         56.6790   54.6780   22.1970 C.2   149  SER149      0.2644
     12  O         57.7770   54.4640   22.7110 O.2   149  SER149     -0.2714
     13  CB        54.7330   53.4920   23.2420 C.3   149  SER149      0.2130
     14  OG        54.1670   54.7610   23.5180 O.3   149  SER149     -0.2179
     15  N         56.3050   55.8880   21.7780 N.am  150  SER150     -0.1935
     16  CA        57.2020   57.0400   21.9040 C.3   150  SER150      0.2055
     17  C         57.1610   57.6410   23.3020 C.2   150  SER150      0.2643
     18  O         58.1070   58.3000   23.7330 O.2   150  SER150     -0.2714
     19  CB        56.8670   58.1210   20.8690 C.3   150  SER150      0.2130
     20  OG        55.5660   58.6440   21.0470 O.3   150  SER150     -0.2179
     21  N         56.0570   57.4250   24.0050 N.am  151  ASP151     -0.1971
     22  CA        55.9130   57.9200   25.3660 C.3   151  ASP151      0.1709
     23  C         55.3580   56.7760   26.2170 C.2   151  ASP151      0.2293
     24  O         54.1440   56.5870   26.3130 O.2   151  ASP151     -0.2864
     25  CB        54.9750   59.1360   25.3990 C.3   151  ASP151      0.1436
     26  CG        54.5810   59.5370   26.8120 C.2   151  ASP151      0.3671
     27  OD1       55.2520   59.1130   27.7810 O.co2 151  ASP151     -0.2456
     28  OD2       53.5980   60.2870   26.9570 O.co2 151  ASP151     -0.2456
     29  N         58.9750   54.2100   25.5600 N.3   178  ASN178     -0.1240
     30  CA        60.1990   54.8040   26.0950 C.3   178  ASN178      0.1653
     31  C         59.9640   55.8990   27.1340 C.2   178  ASN178      0.2266
     32  O         58.9360   56.5770   27.1230 O.2   178  ASN178     -0.2867
     33  CB        61.0190   55.4050   24.9430 C.3   178  ASN178      0.1155
     34  CG        61.5010   54.3540   23.9580 C.2   178  ASN178      0.2627
     35  OD1       60.9810   53.2400   23.9230 O.2   178  ASN178     -0.2716
     36  ND2       62.4950   54.7080   23.1470 N.am  178  ASN178     -0.0877
     37  N         63.0160   50.7940   28.1090 N.3   197  LYS197     -0.1245
     38  CA        63.6490   51.4560   26.9770 C.3   197  LYS197      0.1561
     39  C         63.7300   52.9750   27.1660 C.2   197  LYS197      0.2260
     40  O         62.7460   53.6300   27.5150 O.2   197  LYS197     -0.2867
     41  CB        62.8990   51.0920   25.6930 C.3   197  LYS197      0.0271
     42  CG        63.7870   50.9850   24.4610 C.3   197  LYS197      0.0035
     43  CD        63.3960   49.7970   23.5720 C.3   197  LYS197      0.0206
     44  CE        62.0170   49.9790   22.9640 C.3   197  LYS197      0.1093
     45  NZ        61.9280   51.2680   22.2190 N.3   197  LYS197     -0.1314
     46  N         64.6900   56.8520   25.6920 N.3   199  GLY199     -0.1210
     47  CA        64.8560   57.6600   24.5020 C.3   199  GLY199      0.1956
     48  C         63.6370   58.2020   23.7980 C.2   199  GLY199      0.2612
     49  O         62.7390   57.4600   23.4120 O.2   199  GLY199     -0.2717
     50  N         63.6220   59.5190   23.6310 N.am  200  ILE200     -0.1965
     51  CA        62.5580   60.2100   22.9200 C.3   200  ILE200      0.1727
     52  C         63.1940   61.3800   22.1810 C.2   200  ILE200      0.2616
     53  O         63.7590   62.2800   22.8070 O.2   200  ILE200     -0.2715
     54  CB        61.4840   60.7660   23.8650 C.3   200  ILE200      0.0290
     55  CG1       60.8250   59.6250   24.6460 C.3   200  ILE200      0.0022
     56  CG2       60.4370   61.5170   23.0530 C.3   200  ILE200      0.0023
     57  CD1       59.8100   60.0970   25.6660 C.3   200  ILE200      0.0001
     58  N         63.1210   61.3500   20.8530 N.am  201  GLY201     -0.1955
     59  CA        63.6820   62.4240   20.0550 C.3   201  GLY201      0.1869
     60  C         65.0130   62.1270   19.3860 C.2   201  GLY201      0.2309
     61  O         65.3180   62.6900   18.3330 O.2   201  GLY201     -0.2863
     62  N         66.2020   59.3200   17.8180 N.3   203  GLY203     -0.1225
     63  CA        66.1740   58.6150   16.5420 C.3   203  GLY203      0.1811
     64  C         66.5780   59.4460   15.3300 C.2   203  GLY203      0.2280
     65  O         66.2120   60.6170   15.2160 O.2   203  GLY203     -0.2866
     66  N         63.6170   60.7550   13.4780 N.3   206  CYS206     -0.1235
     67  CA        62.6510   61.4170   14.3500 C.3   206  CYS206      0.1677
     68  C         62.9580   62.9110   14.4480 C.2   206  CYS206      0.2270
     69  O         64.0910   63.3000   14.7310 O.2   206  CYS206     -0.2867
     70  CB        62.6860   60.7890   15.7460 C.3   206  CYS206      0.0956
     71  SG        61.4650   61.4640   16.8990 S.3   206  CYS206     -0.0801
     72  N         57.5000   68.4200   15.4210 N.3   211  GLN211     -0.1245
     73  CA        56.4510   67.5590   15.9470 C.3   211  GLN211      0.1566
     74  C         55.7680   68.1050   17.2020 C.2   211  GLN211      0.2260
     75  O         55.0660   69.1170   17.1470 O.2   211  GLN211     -0.2867
     76  CB        57.0190   66.1600   16.2180 C.3   211  GLN211      0.0367
     77  CG        57.0910   65.2670   14.9800 C.3   211  GLN211      0.0905
     78  CD        58.2470   64.2740   15.0290 C.2   211  GLN211      0.2608
     79  OE1       58.4880   63.6230   16.0500 O.2   211  GLN211     -0.2717
     80  NE2       58.9640   64.1500   13.9130 N.am  211  GLN211     -0.0878
     81  N         67.8310   53.5940   23.4510 N.3   245  ASP245     -0.1239
     82  CA        67.2150   53.4870   22.1240 C.3   245  ASP245      0.1674
     83  C         67.2690   54.7730   21.2940 C.2   245  ASP245      0.2266
     84  O         66.6040   55.7580   21.6080 O.2   245  ASP245     -0.2867
     85  CB        65.7620   53.0190   22.3050 C.3   245  ASP245      0.1410
     86  CG        64.9780   52.9600   21.0070 C.2   245  ASP245      0.3668
     87  OD1       65.5800   52.8350   19.9200 O.co2 245  ASP245     -0.2456
     88  OD2       63.7340   53.0220   21.0860 O.co2 245  ASP245     -0.2456
     89  N         58.4520   54.5890   12.0130 N.3   295  GLU295     -0.1231
     90  CA        57.1380   54.0290   12.2870 C.3   295  GLU295      0.1699
     91  C         56.1000   55.1390   12.3700 C.2   295  GLU295      0.2592
     92  O         54.8990   54.8910   12.2920 O.2   295  GLU295     -0.2718
     93  CB        57.1810   53.2520   13.5990 C.3   295  GLU295      0.0402
     94  CG        58.0250   51.9970   13.5240 C.3   295  GLU295      0.1161
     95  CD        57.3720   50.9200   12.6740 C.2   295  GLU295      0.3649
     96  OE1       56.2800   50.4560   13.0560 O.co2 295  GLU295     -0.2457
     97  OE2       57.9440   50.5400   11.6320 O.co2 295  GLU295     -0.2457
     98  N         56.5760   56.3680   12.5290 N.am  296  GLY296     -0.1957
     99  CA        55.6760   57.5000   12.6190 C.3   296  GLY296      0.1869
    100  C         55.3390   58.0950   11.2650 C.2   296  GLY296      0.2309
    101  O         54.4910   58.9770   11.1740 O.2   296  GLY296     -0.2863
    102  N         52.4340   53.4190    9.4870 N.3   301  ARG301     -0.1245
    103  CA        51.1670   53.1370   10.1550 C.3   301  ARG301      0.1563
    104  C         49.9630   53.0240    9.2130 C.2   301  ARG301      0.2260
    105  O         48.8150   53.0730    9.6610 O.2   301  ARG301     -0.2867
    106  CB        50.8930   54.1840   11.2470 C.3   301  ARG301      0.0307
    107  CG        50.5560   55.5890   10.7550 C.3   301  ARG301      0.0489
    108  CD        50.2070   56.4900   11.9410 C.3   301  ARG301      0.2205
    109  NE        49.4700   57.6930   11.5580 N.pl3 301  ARG301     -0.0865
    110  CZ        48.9180   58.5370   12.4260 C.cat 301  ARG301      0.5346
    111  NH1       49.0210   58.3120   13.7310 N.pl3 301  ARG301      0.1354
    112  NH2       48.2530   59.6020   11.9940 N.pl3 301  ARG301      0.1354
    113  N         55.0270   62.8930   11.3460 N.3   304  GLU304     -0.1245
    114  CA        55.4260   62.2970   12.6170 C.3   304  GLU304      0.1567
    115  C         56.7190   61.4950   12.4390 C.2   304  GLU304      0.2260
    116  O         57.5000   61.3170   13.3790 O.2   304  GLU304     -0.2867
    117  CB        54.3020   61.3960   13.1400 C.3   304  GLU304      0.0388
    118  CG        52.9470   62.1000   13.2270 C.3   304  GLU304      0.1160
    119  CD        51.8520   61.2220   13.8170 C.2   304  GLU304      0.3649
    120  OE1       51.9610   60.8410   15.0040 O.co2 304  GLU304     -0.2457
    121  OE2       50.8810   60.9140   13.0930 O.co2 304  GLU304     -0.2457
@<TRIPOS>BOND
     1   104   105    2
     2   104   103    1
     3   102   103    1
     4   103   106    1
     5   107   106    1
     6   107   108    1
     7   101   100    2
     8   100    99    1
     9   113   114    1
    10   109   108    1
    11   109   110    2
    12    97    95   ar
    13   112   110    1
    14    89    90    1
    15    90    91    1
    16    90    93    1
    17    92    91    2
    18    91    98   am
    19   110   111    1
    20   115   114    1
    21   115   116    2
    22    98    99    1
    23   114   117    1
    24    95    96   ar
    25    95    94    1
    26   121   119   ar
    27   117   118    1
    28   118   119    1
    29    66    67    1
    30    94    93    1
    31   119   120   ar
    32    80    78   am
    33    67    68    1
    34    67    70    1
    35    68    69    2
    36    77    78    1
    37    77    76    1
    38    78    79    2
    39    65    64    2
    40    64    63    1
    41    72    73    1
    42    70    71    1
    43    73    76    1
    44    73    74    1
    45    63    62    1
    46    75    74    2
    47     8     6   ar
    48    61    60    2
    49     6     7   ar
    50     6     5    1
    51    60    59    1
    52     5     2    1
    53    87    86   ar
    54    59    58    1
    55    58    52   am
    56    19    20    1
    57    19    16    1
    58     4     3    2
    59    86    88   ar
    60    86    85    1
    61     2     3    1
    62     2     1    1
    63    83    84    2
    64    83    82    1
    65     3     9   am
    66    15    16    1
    67    15    11   am
    68     9    10    1
    69    16    17    1
    70    10    11    1
    71    10    13    1
    72    82    85    1
    73    82    81    1
    74    52    53    2
    75    52    51    1
    76    11    12    2
    77    45    44    1
    78    51    50    1
    79    51    54    1
    80    44    43    1
    81    56    54    1
    82    36    34   am
    83    13    14    1
    84    17    18    2
    85    17    21   am
    86    49    48    2
    87    43    42    1
    88    50    48   am
    89    48    47    1
    90    54    55    1
    91    35    34    2
    92    34    33    1
    93    21    22    1
    94    42    41    1
    95    47    46    1
    96    55    57    1
    97    33    30    1
    98    22    25    1
    99    22    23    1
   100    25    26    1
   101    29    30    1
   102    41    38    1
   103    30    31    1
   104    23    24    2
   105    26    28   ar
   106    26    27   ar
   107    38    39    1
   108    38    37    1
   109    32    31    2
   110    39    40    2
