@<TRIPOS>MOLECULE
tmp/1megA00.pdb
 131 131 0 0 0
SMALL
GASTEIGER

@<TRIPOS>ATOM
      1  N         16.2820    6.5120   24.5960 N.3    19  GLN19      -0.1245
      2  CA        17.0300    7.6990   24.2180 C.3    19  GLN19       0.1566
      3  C         16.7660    8.8830   25.1220 C.2    19  GLN19       0.2260
      4  O         17.5710    9.8090   25.1860 O.2    19  GLN19      -0.2867
      5  CB        16.7670    8.0780   22.7650 C.3    19  GLN19       0.0367
      6  CG        15.3580    8.4420   22.4620 C.3    19  GLN19       0.0905
      7  CD        15.2440    8.9290   21.0560 C.2    19  GLN19       0.2608
      8  OE1       14.9260    8.1660   20.1350 O.2    19  GLN19      -0.2717
      9  NE2       15.5850   10.1950   20.8540 N.am   19  GLN19      -0.0878
     10  N         17.6250   14.4360   21.1710 N.3    23  GLY23      -0.1225
     11  CA        17.3150   14.0490   19.8040 C.3    23  GLY23       0.1811
     12  C         18.4130   13.1780   19.2170 C.2    23  GLY23       0.2280
     13  O         18.9380   13.4860   18.1490 O.2    23  GLY23      -0.2866
     14  N         18.1140    9.8320   18.1990 N.3    25  CYS25      -0.1221
     15  CA        17.6330    8.6800   17.4240 C.3    25  CYS25       0.1808
     16  C         18.5950    8.2370   16.3140 C.2    25  CYS25       0.2601
     17  O         18.7910    7.0300   16.1040 O.2    25  CYS25      -0.2717
     18  CB        16.2460    8.9590   16.8370 C.3    25  CYS25       0.0970
     19  SG        16.1560   10.2100   15.5020 S.3    25  CYS25      -0.0800
     20  N         19.2050    9.2090   15.6270 N.am   26  TRP26      -0.1976
     21  CA        20.1780    8.9580   14.5480 C.3    26  TRP26       0.1640
     22  C         21.3480    8.0820   15.0350 C.2    26  TRP26       0.2290
     23  O         21.8130    7.2060   14.3040 O.2    26  TRP26      -0.2864
     24  CB        20.7330   10.2850   13.9590 C.3    26  TRP26       0.0576
     25  CG        21.4980   11.1840   14.9660 C.ar   26  TRP26       0.0006
     26  CD1       20.9450   12.0270   15.8890 C.ar   26  TRP26       0.0946
     27  CD2       22.9370   11.2860   15.1400 C.ar   26  TRP26       0.0152
     28  NE1       21.9360   12.6360   16.6320 N.ar   26  TRP26      -0.2442
     29  CE2       23.1640   12.2080   16.2030 C.ar   26  TRP26       0.0810
     30  CE3       24.0520   10.7010   14.5180 C.ar   26  TRP26       0.0012
     31  CZ2       24.4600   12.5470   16.6460 C.ar   26  TRP26       0.0191
     32  CZ3       25.3430   11.0420   14.9580 C.ar   26  TRP26       0.0001
     33  CH2       25.5310   11.9560   16.0140 C.ar   26  TRP26       0.0015
     34  N         24.2070   16.9730   14.8750 N.3    61  HIS61      -0.1241
     35  CA        24.0420   17.9800   15.9190 C.3    61  HIS61       0.1621
     36  C         23.7940   17.4890   17.3430 C.2    61  HIS61       0.2264
     37  O         23.0400   18.1170   18.1000 O.2    61  HIS61      -0.2867
     38  CB        22.9080   18.9230   15.5150 C.3    61  HIS61       0.0745
     39  CG        22.9420   19.3310   14.0750 C.ar   61  HIS61       0.0817
     40  ND1       23.8250   20.2680   13.5860 N.ar   61  HIS61      -0.2268
     41  CD2       22.1900   18.9440   13.0220 C.ar   61  HIS61       0.1154
     42  CE1       23.6220   20.4370   12.2950 C.ar   61  HIS61       0.1986
     43  NE2       22.6310   19.6460   11.9290 N.ar   61  HIS61      -0.2212
     44  N         20.4490   17.4660   19.1340 N.3    64  LYS64      -0.1231
     45  CA        19.5300   18.2360   18.3180 C.3    64  LYS64       0.1693
     46  C         19.1860   17.5780   16.9720 C.2    64  LYS64       0.2593
     47  O         18.6750   18.2420   16.0670 O.2    64  LYS64      -0.2718
     48  CB        20.0290   19.6690   18.1330 C.3    64  LYS64       0.0285
     49  CG        19.9570   20.4800   19.4130 C.3    64  LYS64       0.0035
     50  CD        19.4810   21.8800   19.1250 C.3    64  LYS64       0.0206
     51  CE        20.5100   22.8940   19.5710 C.3    64  LYS64       0.1093
     52  NZ        20.1420   24.2780   19.1330 N.3    64  LYS64      -0.1314
     53  N         19.4270   16.2740   16.8580 N.am   65  GLY65      -0.1942
     54  CA        19.1220   15.5720   15.6200 C.3    65  GLY65       0.2014
     55  C         20.3920   15.3160   14.8460 C.2    65  GLY65       0.2639
     56  O         21.3970   16.0000   15.0440 O.2    65  GLY65      -0.2714
     57  N         20.3560   14.3550   13.9400 N.am   66  GLY66      -0.1939
     58  CA        21.5530   14.0450   13.1950 C.3    66  GLY66       0.2014
     59  C         21.2450   13.2380   11.9680 C.2    66  GLY66       0.2639
     60  O         20.0880   13.1830   11.5330 O.2    66  GLY66      -0.2714
     61  N         22.2500   12.5260   11.4890 N.am   67  TYR67      -0.1960
     62  CA        22.1250   11.7740   10.2520 C.3    67  TYR67       0.1756
     63  C         22.7790   10.4000   10.2620 C.2    67  TYR67       0.2461
     64  O         24.0010   10.2770   10.3550 O.2    67  TYR67      -0.2730
     65  CB        22.7230   12.6140    9.1080 C.3    67  TYR67       0.0574
     66  CG        22.3500   14.0970    9.1290 C.ar   67  TYR67      -0.0198
     67  CD1       23.1180   15.0160    9.8480 C.ar   67  TYR67      -0.0009
     68  CD2       21.2340   14.5830    8.4360 C.ar   67  TYR67      -0.0009
     69  CE1       22.7830   16.3800    9.8920 C.ar   67  TYR67       0.0417
     70  CE2       20.8910   15.9610    8.4700 C.ar   67  TYR67       0.0417
     71  CZ        21.6730   16.8500    9.2100 C.ar   67  TYR67       0.1957
     72  OH        21.3400   18.1850    9.3490 O.3    67  TYR67      -0.2866
     73  N         21.9720    9.3360   10.1080 N.am   68  PRO68      -0.2727
     74  CA        22.5030    7.9690   10.0990 C.3    68  PRO68       0.1402
     75  C         23.6460    7.6750    9.1070 C.2    68  PRO68       0.2269
     76  O         24.5850    6.9640    9.4560 O.2    68  PRO68      -0.2865
     77  CB        21.2570    7.1220    9.8340 C.3    68  PRO68       0.0296
     78  CG        20.1640    7.9270   10.5030 C.3    68  PRO68       0.0237
     79  CD        20.4980    9.3410   10.0960 C.3    68  PRO68       0.0939
     80  N         13.8230    5.2600    8.3940 N.3   133  VAL133     -0.1245
     81  CA        13.1910    6.4560    8.9600 C.3   133  VAL133      0.1561
     82  C         11.6740    6.4070    8.9240 C.2   133  VAL133      0.2260
     83  O         11.0800    5.7100    8.0960 O.2   133  VAL133     -0.2867
     84  CB        13.6900    7.7760    8.2880 C.3   133  VAL133      0.0252
     85  CG1       15.2130    7.9180    8.4510 C.3   133  VAL133      0.0019
     86  CG2       13.2720    7.8320    6.8160 C.3   133  VAL133      0.0019
     87  N          9.0120   12.3870    7.6120 N.3   157  VAL157     -0.1231
     88  CA         9.8740   11.7030    8.5700 C.3   157  VAL157      0.1692
     89  C         10.7460   12.5960    9.4360 C.2   157  VAL157      0.2592
     90  O         11.1950   13.6610    9.0080 O.2   157  VAL157     -0.2718
     91  CB        10.7580   10.6240    7.8810 C.3   157  VAL157      0.0266
     92  CG1        9.8890    9.6580    7.0840 C.3   157  VAL157      0.0020
     93  CG2       11.7830   11.2740    6.9730 C.3   157  VAL157      0.0020
     94  N         10.9610   12.1430   10.6650 N.am  158  GLU158     -0.1966
     95  CA        11.7890   12.8520   11.6320 C.3   158  GLU158      0.1733
     96  C         12.3300   11.9470   12.7230 C.2   158  GLU158      0.2616
     97  O         12.9480   12.4310   13.6640 O.2   158  GLU158     -0.2715
     98  CB        11.0430   14.0280   12.2900 C.3   158  GLU158      0.0429
     99  CG         9.5270   14.0740   12.1240 C.3   158  GLU158      0.1163
    100  CD         8.7630   12.9220   12.7830 C.2   158  GLU158      0.3649
    101  OE1        9.3860   11.9550   13.2930 O.co2 158  GLU158     -0.2457
    102  OE2        7.5170   12.9920   12.7590 O.co2 158  GLU158     -0.2457
    103  N         12.1730   10.6380   12.5720 N.am  159  HIS159     -0.1959
    104  CA        12.6250    9.7080   13.6030 C.3   159  HIS159      0.1787
    105  C         13.3250    8.5060   12.9760 C.2   159  HIS159      0.2620
    106  O         12.7330    7.8060   12.1650 O.2   159  HIS159     -0.2715
    107  CB        11.3870    9.2680   14.4180 C.3   159  HIS159      0.0785
    108  CG        11.6770    8.3930   15.6030 C.ar  159  HIS159      0.0821
    109  ND1       12.4360    8.8060   16.6780 N.ar  159  HIS159     -0.2267
    110  CD2       11.2520    7.1440   15.9090 C.ar  159  HIS159      0.1154
    111  CE1       12.4650    7.8520   17.5940 C.ar  159  HIS159      0.1986
    112  NE2       11.7520    6.8320   17.1500 N.ar  159  HIS159     -0.2212
    113  N         14.5900    8.2980   13.3220 N.am  160  ALA160     -0.1977
    114  CA        15.3520    7.1540   12.8170 C.3   160  ALA160      0.1597
    115  C         15.1770    5.9390   13.7300 C.2   160  ALA160      0.2287
    116  O         15.2670    6.0420   14.9540 O.2   160  ALA160     -0.2864
    117  CB        16.8300    7.5140   12.7090 C.3   160  ALA160      0.0319
    118  N         12.4950    3.8550   22.5190 N.3   181  TRP181     -0.1241
    119  CA        11.6470    4.5460   23.4800 C.3   181  TRP181      0.1605
    120  C         11.3330    3.6780   24.6890 C.2   181  TRP181      0.2264
    121  O         10.3660    3.9330   25.3970 O.2   181  TRP181     -0.2867
    122  CB        10.3390    5.0010   22.8140 C.3   181  TRP181      0.0550
    123  CG        10.4580    6.2280   21.9080 C.ar  181  TRP181      0.0003
    124  CD1       11.5710    7.0110   21.7010 C.ar  181  TRP181      0.0946
    125  CD2        9.4340    6.7570   21.0480 C.ar  181  TRP181      0.0152
    126  NE1       11.2950    7.9770   20.7570 N.ar  181  TRP181     -0.2442
    127  CE2        9.9950    7.8460   20.3430 C.ar  181  TRP181      0.0810
    128  CE3        8.0960    6.4130   20.7980 C.ar  181  TRP181      0.0012
    129  CZ2        9.2680    8.5820   19.3910 C.ar  181  TRP181      0.0191
    130  CZ3        7.3700    7.1520   19.8470 C.ar  181  TRP181      0.0001
    131  CH2        7.9610    8.2220   19.1630 C.ar  181  TRP181      0.0015
@<TRIPOS>BOND
     1    86    84    1
     2    93    91    1
     3    92    91    1
     4    87    88    1
     5    91    88    1
     6    83    82    2
     7    84    85    1
     8    84    81    1
     9    80    81    1
    10    68    70   ar
    11    68    66   ar
    12    70    71   ar
    13    88    89    1
    14    82    81    1
    15    90    89    2
    16    75    76    2
    17    75    74    1
    18    65    66    1
    19    65    62    1
    20    66    67   ar
    21    71    72    1
    22    71    69   ar
    23    89    94   am
    24    77    74    1
    25    77    78    1
    26    67    69   ar
    27    79    73    1
    28    79    78    1
    29    74    73    1
    30    73    63   am
    31    62    63    1
    32    62    61    1
    33    63    64    2
    34    94    95    1
    35    61    59   am
    36    60    59    2
    37    95    98    1
    38    95    96    1
    39    43    42   ar
    40    43    41   ar
    41    59    58    1
    42    99    98    1
    43    99   100    1
    44   106   105    2
    45    42    40   ar
    46   103    96   am
    47   103   104    1
    48   117   114    1
    49    96    97    2
    50   102   100   ar
    51   100   101   ar
    52   114   113    1
    53   114   115    1
    54   105   113   am
    55   105   104    1
    56    41    39   ar
    57    58    57    1
    58    40    39   ar
    59   104   107    1
    60   115   116    2
    61    57    55   am
    62    24    21    1
    63    24    25    1
    64    39    38    1
    65    23    22    2
    66   107   108    1
    67    30    32   ar
    68    30    27   ar
    69    21    22    1
    70    21    20    1
    71    55    56    2
    72    55    54    1
    73    34    35    1
    74    32    33   ar
    75    25    27   ar
    76    25    26   ar
    77    27    29   ar
    78    19    18    1
    79    38    35    1
    80   108   110   ar
    81   108   109   ar
    82    54    53    1
    83    20    16   am
    84    26    28   ar
    85   110   112   ar
    86    35    36    1
    87    33    31   ar
    88    47    46    2
    89    17    16    2
    90    29    28   ar
    91    29    31   ar
    92    16    15    1
    93   109   111   ar
    94    18    15    1
    95    53    46   am
    96    46    45    1
    97   112   111   ar
    98    36    37    2
    99    15    14    1
   100    48    45    1
   101    48    49    1
   102    13    12    2
   103    45    44    1
   104    50    49    1
   105    50    51    1
   106    52    51    1
   107   131   129   ar
   108   131   130   ar
   109    12    11    1
   110   129   127   ar
   111    11    10    1
   112   130   128   ar
   113     8     7    2
   114   127   126   ar
   115   127   125   ar
   116   126   124   ar
   117   128   125   ar
   118     9     7   am
   119   125   123   ar
   120     7     6    1
   121   124   123   ar
   122   123   122    1
   123     6     5    1
   124   118   119    1
   125     5     2    1
   126   122   119    1
   127   119   120    1
   128     2     1    1
   129     2     3    1
   130   120   121    2
   131     3     4    2
