@<TRIPOS>MOLECULE
tmp/1memA00.pdb
 174 169 0 0 0
SMALL
GASTEIGER

@<TRIPOS>ATOM
      1  N         14.0620   13.2650   11.0620 N.3    19  GLN19      -0.1245
      2  CA        15.4880   12.9990   11.2120 C.3    19  GLN19       0.1566
      3  C         16.3440   14.2050   10.7970 C.2    19  GLN19       0.2260
      4  O         17.5120   14.3120   11.1500 O.2    19  GLN19      -0.2867
      5  CB        15.8800   11.7460   10.4200 C.3    19  GLN19       0.0367
      6  CG        15.5830   11.8480    8.9440 C.3    19  GLN19       0.0905
      7  CD        15.7640   10.5290    8.1940 C.2    19  GLN19       0.2608
      8  OE1       14.8770   10.0980    7.4700 O.2    19  GLN19      -0.2717
      9  NE2       16.8980    9.8810    8.3850 N.am   19  GLN19      -0.0878
     10  N         21.0140   11.2160    8.0510 N.3    23  GLY23      -0.1225
     11  CA        20.3840   10.0180    7.5060 C.3    23  GLY23       0.1811
     12  C         20.2080    8.8910    8.5150 C.2    23  GLY23       0.2280
     13  O         20.5040    7.7260    8.2430 O.2    23  GLY23      -0.2866
     14  N         17.5810    7.2680    9.5290 N.3    25  CYS25      -0.1221
     15  CA        16.3050    6.5620    9.4150 C.3    25  CYS25       0.1808
     16  C         16.2910    5.2450   10.2140 C.2    25  CYS25       0.2601
     17  O         15.2740    4.8670   10.7660 O.2    25  CYS25      -0.2717
     18  CB        15.9750    6.2910    7.9350 C.3    25  CYS25       0.0970
     19  SG        17.2710    5.2990    7.1170 S.3    25  CYS25      -0.0800
     20  N         17.4240    4.5520   10.2250 N.am   26  TRP26      -0.1976
     21  CA        17.5700    3.2880   10.9410 C.3    26  TRP26       0.1640
     22  C         17.3200    3.4700   12.4620 C.2    26  TRP26       0.2290
     23  O         16.6780    2.6300   13.0980 O.2    26  TRP26      -0.2864
     24  CB        18.9630    2.6990   10.6660 C.3    26  TRP26       0.0576
     25  CG        20.0980    3.5230   11.1700 C.ar   26  TRP26       0.0006
     26  CD1       20.8320    4.4330   10.4700 C.ar   26  TRP26       0.0946
     27  CD2       20.6470    3.5010   12.4980 C.ar   26  TRP26       0.0152
     28  NE1       21.8130    4.9820   11.2710 N.ar   26  TRP26      -0.2442
     29  CE2       21.7220    4.4220   12.5220 C.ar   26  TRP26       0.0810
     30  CE3       20.3380    2.7830   13.6680 C.ar   26  TRP26       0.0012
     31  CZ2       22.4960    4.6420   13.6740 C.ar   26  TRP26       0.0191
     32  CZ3       21.1100    3.0040   14.8080 C.ar   26  TRP26       0.0001
     33  CH2       22.1720    3.9230   14.7970 C.ar   26  TRP26       0.0015
     34  N         28.7410   -0.3280   15.5870 N.3    59  GLU59      -0.1231
     35  CA        28.6720   -1.1990   14.4320 C.3    59  GLU59       0.1699
     36  C         27.9640   -0.4910   13.2620 C.2    59  GLU59       0.2592
     37  O         28.1080   -0.8990   12.1120 O.2    59  GLU59      -0.2718
     38  CB        27.9820   -2.5040   14.8030 C.3    59  GLU59       0.0402
     39  CG        28.6280   -3.1880   16.0120 C.3    59  GLU59       0.1161
     40  CD        27.7760   -4.3200   16.5640 C.2    59  GLU59       0.3649
     41  OE1       26.7660   -4.6720   15.9010 O.co2  59  GLU59      -0.2457
     42  OE2       28.1560   -4.8430   17.6330 O.co2  59  GLU59      -0.2457
     43  N         27.2520    0.5940   13.5650 N.am   60  ASN60      -0.1960
     44  CA        26.5450    1.3790   12.5660 C.3    60  ASN60       0.1819
     45  C         27.3470    2.6310   12.2020 C.2    60  ASN60       0.2621
     46  O         28.3840    2.8810   12.7950 O.2    60  ASN60      -0.2715
     47  CB        25.1310    1.7320   13.0450 C.3    60  ASN60       0.1195
     48  CG        24.1490    0.5810   12.8530 C.2    60  ASN60       0.2630
     49  OD1       24.4300   -0.3620   12.1170 O.2    60  ASN60      -0.2716
     50  ND2       22.9880    0.6630   13.4970 N.am   60  ASN60      -0.0877
     51  N         26.8760    3.3890   11.2070 N.am   61  ASP61      -0.1971
     52  CA        27.5510    4.5980   10.7350 C.3    61  ASP61       0.1709
     53  C         26.9190    5.9390   11.0140 C.2    61  ASP61       0.2293
     54  O         27.1080    6.8830   10.2500 O.2    61  ASP61      -0.2864
     55  CB        27.8060    4.4840    9.2560 C.3    61  ASP61       0.1436
     56  CG        28.6460    3.3160    8.9370 C.2    61  ASP61       0.3671
     57  OD1       29.6810    3.1650    9.6290 O.co2  61  ASP61      -0.2456
     58  OD2       28.2500    2.5260    8.0530 O.co2  61  ASP61      -0.2456
     59  N         24.9630    9.0480   10.9330 N.3    63  CYS63      -0.1221
     60  CA        24.1640    9.6830    9.8910 C.3    63  CYS63       0.1808
     61  C         24.4430    9.0980    8.5080 C.2    63  CYS63       0.2602
     62  O         23.7410    9.4240    7.5610 O.2    63  CYS63      -0.2717
     63  CB        24.3760   11.1940    9.8780 C.3    63  CYS63       0.0970
     64  SG        23.9300   12.0140   11.4430 S.3    63  CYS63      -0.0800
     65  N         25.4820    8.2730    8.4020 N.am   64  GLY64      -0.1942
     66  CA        25.8320    7.6270    7.1450 C.3    64  GLY64       0.2014
     67  C         25.1730    6.2610    6.9440 C.2    64  GLY64       0.2639
     68  O         25.5670    5.5040    6.0560 O.2    64  GLY64      -0.2714
     69  N         24.2080    5.9150    7.8030 N.am   65  GLY65      -0.1939
     70  CA        23.4970    4.6590    7.6560 C.3    65  GLY65       0.2014
     71  C         23.7560    3.6070    8.7110 C.2    65  GLY65       0.2639
     72  O         24.6830    3.7360    9.5350 O.2    65  GLY65      -0.2714
     73  N         22.9220    2.5680    8.6940 N.am   66  GLY66      -0.1939
     74  CA        23.0560    1.4760    9.6450 C.3    66  GLY66       0.2014
     75  C         21.9010    0.4990    9.5420 C.2    66  GLY66       0.2639
     76  O         21.0670    0.5980    8.6330 O.2    66  GLY66      -0.2714
     77  N         21.8580   -0.4490   10.4770 N.am   67  TYR67      -0.1959
     78  CA        20.8110   -1.4680   10.5140 C.3    67  TYR67       0.1771
     79  C         20.1010   -1.5120   11.8470 C.2    67  TYR67       0.2619
     80  O         20.6880   -1.2180   12.8950 O.2    67  TYR67      -0.2715
     81  CB        21.3810   -2.8540   10.2290 C.3    67  TYR67       0.0574
     82  CG        21.9540   -2.9850    8.8370 C.ar   67  TYR67      -0.0198
     83  CD1       21.1130   -3.0820    7.7210 C.ar   67  TYR67      -0.0009
     84  CD2       23.3290   -3.0120    8.6430 C.ar   67  TYR67      -0.0009
     85  CE1       21.6300   -3.2080    6.4490 C.ar   67  TYR67       0.0417
     86  CE2       23.8610   -3.1380    7.3760 C.ar   67  TYR67       0.0417
     87  CZ        23.0110   -3.2340    6.2780 C.ar   67  TYR67       0.1957
     88  OH        23.5600   -3.3470    5.0150 O.3    67  TYR67      -0.2866
     89  N         18.8440   -1.9280   11.8060 N.am   68  MET68      -0.1977
     90  CA        18.0360   -2.0110   13.0080 C.3    68  MET68       0.1605
     91  C         18.4990   -3.1290   13.9290 C.2    68  MET68       0.2287
     92  O         18.5340   -2.9470   15.1480 O.2    68  MET68      -0.2864
     93  CB        16.5580   -2.1500   12.6590 C.3    68  MET68       0.0413
     94  CG        16.0110   -0.9110   11.9430 C.3    68  MET68       0.0598
     95  SD        16.4350   -0.7840   10.1640 S.3    68  MET68      -0.1393
     96  CE        15.0500   -1.7270    9.4830 C.3    68  MET68       0.0692
     97  N         12.7180   -2.3710    5.9800 N.3   134  ALA134     -0.1245
     98  CA        13.6050   -1.6690    5.0630 C.3   134  ALA134      0.1562
     99  C         12.9570   -1.6980    3.6850 C.2   134  ALA134      0.2260
    100  O         12.3190   -2.6840    3.3150 O.2   134  ALA134     -0.2867
    101  CB        14.9840   -2.3360    5.0270 C.3   134  ALA134      0.0290
    102  N         13.2990    3.4590   -1.1460 N.3   137  ALA137     -0.1231
    103  CA        12.5530    4.7180   -1.1360 C.3   137  ALA137      0.1694
    104  C         13.2750    5.7390   -2.0070 C.2   137  ALA137      0.2592
    105  O         13.1580    6.9420   -1.7950 O.2   137  ALA137     -0.2718
    106  CB        12.4370    5.2490    0.3000 C.3   137  ALA137      0.0304
    107  N         14.0020    5.2710   -3.0060 N.am  138  SER138     -0.1952
    108  CA        14.7750    6.1740   -3.8470 C.3   138  SER138      0.1924
    109  C         14.0060    6.8650   -4.9710 C.2   138  SER138      0.2314
    110  O         14.4480    7.8850   -5.4950 O.2   138  SER138     -0.2863
    111  CB        15.9780    5.4220   -4.4240 C.3   138  SER138      0.2116
    112  OG        15.5420    4.4210   -5.3260 O.3   138  SER138     -0.2180
    113  N          9.1970   10.1520   -2.7850 N.3   143  GLN143     -0.1245
    114  CA         9.4490   11.4790   -2.2260 C.3   143  GLN143      0.1566
    115  C          8.2070   12.3540   -2.3350 C.2   143  GLN143      0.2260
    116  O          7.8390   13.0500   -1.3980 O.2   143  GLN143     -0.2867
    117  CB        10.6190   12.1390   -2.9560 C.3   143  GLN143      0.0367
    118  CG        10.8650   13.6090   -2.6080 C.3   143  GLN143      0.0905
    119  CD        11.1630   13.8210   -1.1280 C.2   143  GLN143      0.2608
    120  OE1       12.0880   13.2100   -0.5680 O.2   143  GLN143     -0.2717
    121  NE2       10.3720   14.6790   -0.4780 N.am  143  GLN143     -0.0878
    122  N         17.4710   -1.7700   -1.0880 N.3   160  LEU160     -0.1231
    123  CA        16.9210   -1.2330    0.1560 C.3   160  LEU160      0.1693
    124  C         17.8330   -0.1170    0.6200 C.2   160  LEU160      0.2592
    125  O         19.0270   -0.3300    0.7980 O.2   160  LEU160     -0.2718
    126  CB        16.8760   -2.3240    1.2170 C.3   160  LEU160      0.0284
    127  CG        16.1830   -3.6260    0.8160 C.3   160  LEU160      0.0019
    128  CD1       16.4050   -4.6690    1.8950 C.3   160  LEU160      0.0001
    129  CD2       14.7120   -3.3920    0.5670 C.3   160  LEU160      0.0001
    130  N         17.2700    1.0560    0.8640 N.am  161  ASN161     -0.1960
    131  CA        18.0630    2.2090    1.2890 C.3   161  ASN161      0.1819
    132  C         17.4130    3.0210    2.4070 C.2   161  ASN161      0.2621
    133  O         18.0020    3.9530    2.9310 O.2   161  ASN161     -0.2715
    134  CB        18.2920    3.1330    0.0740 C.3   161  ASN161      0.1195
    135  CG        17.0320    3.2920   -0.7930 C.2   161  ASN161      0.2630
    136  OD1       15.9710    3.6710   -0.3050 O.2   161  ASN161     -0.2716
    137  ND2       17.1430    2.9400   -2.0850 N.am  161  ASN161     -0.0877
    138  N         16.1960    2.6660    2.7780 N.am  162  HIS162     -0.1959
    139  CA        15.4860    3.4180    3.7860 C.3   162  HIS162      0.1787
    140  C         14.9080    2.4660    4.8240 C.2   162  HIS162      0.2620
    141  O         14.5670    1.3180    4.5070 O.2   162  HIS162     -0.2715
    142  CB        14.3690    4.1990    3.0980 C.3   162  HIS162      0.0785
    143  CG        13.7000    5.2170    3.9660 C.ar  162  HIS162      0.0821
    144  ND1       14.3380    5.8440    5.0170 N.ar  162  HIS162     -0.2267
    145  CD2       12.4620    5.7660    3.8990 C.ar  162  HIS162      0.1154
    146  CE1       13.5250    6.7320    5.5580 C.ar  162  HIS162      0.1986
    147  NE2       12.3800    6.7040    4.8990 N.ar  162  HIS162     -0.2212
    148  N         14.8250    2.9390    6.0670 N.am  163  ALA163     -0.1977
    149  CA        14.3000    2.1500    7.1810 C.3   163  ALA163      0.1597
    150  C         13.0880    2.8600    7.7450 C.2   163  ALA163      0.2287
    151  O         13.1770    4.0350    8.1140 O.2   163  ALA163     -0.2864
    152  CB        15.3730    1.9910    8.2640 C.3   163  ALA163      0.0319
    153  N         10.3070   11.7310    8.2840 N.3   184  TRP184     -0.1241
    154  CA        10.6430   12.9350    7.5410 C.3   184  TRP184      0.1605
    155  C          9.7050   14.0720    7.9280 C.2   184  TRP184      0.2264
    156  O          9.4840   14.9870    7.1350 O.2   184  TRP184     -0.2867
    157  CB        10.4980   12.6810    6.0350 C.3   184  TRP184      0.0550
    158  CG        11.4770   11.7070    5.4410 C.ar  184  TRP184      0.0003
    159  CD1       12.5720   11.1530    6.0490 C.ar  184  TRP184      0.0946
    160  CD2       11.4650   11.2100    4.0950 C.ar  184  TRP184      0.0152
    161  NE1       13.2460   10.3450    5.1590 N.ar  184  TRP184     -0.2442
    162  CE2       12.5880   10.3590    3.9530 C.ar  184  TRP184      0.0810
    163  CE3       10.6140   11.3970    2.9900 C.ar  184  TRP184      0.0012
    164  CZ2       12.8820    9.6990    2.7480 C.ar  184  TRP184      0.0191
    165  CZ3       10.9020   10.7430    1.7990 C.ar  184  TRP184      0.0001
    166  CH2       12.0270    9.9030    1.6860 C.ar  184  TRP184      0.0015
    167  N         13.8750   -7.2470    4.8300 N.3   209  LEU209     -0.1245
    168  CA        14.7470   -6.9850    5.9740 C.3   209  LEU209      0.1561
    169  C         13.9150   -6.4490    7.1420 C.2   209  LEU209      0.2260
    170  O         14.1060   -5.3310    7.6140 O.2   209  LEU209     -0.2867
    171  CB        15.9040   -6.0260    5.5710 C.3   209  LEU209      0.0270
    172  CG        17.1470   -6.0220    6.4770 C.3   209  LEU209      0.0019
    173  CD1       17.8960   -7.3460    6.3610 C.3   209  LEU209      0.0001
    174  CD2       18.0800   -4.8590    6.1330 C.3   209  LEU209      0.0001
@<TRIPOS>BOND
     1   110   109    2
     2   112   111    1
     3   109   108    1
     4   111   108    1
     5   108   107    1
     6   107   104   am
     7   117   118    1
     8   117   114    1
     9   113   114    1
    10   118   119    1
    11   115   114    1
    12   115   116    2
    13   137   135   am
    14   104   105    2
    15   104   103    1
    16   102   103    1
    17   103   106    1
    18   119   120    2
    19   119   121   am
    20   122   123    1
    21   135   136    2
    22   135   134    1
    23   134   131    1
    24   123   124    1
    25   123   126    1
    26   129   127    1
    27   124   125    2
    28   124   130   am
    29   127   126    1
    30   127   128    1
    31   130   131    1
    32   131   132    1
    33   166   165   ar
    34   166   164   ar
    35   165   163   ar
    36   132   138   am
    37   132   133    2
    38   164   162   ar
    39   138   139    1
    40   163   160   ar
    41   142   139    1
    42   142   143    1
    43   100    99    2
    44    99    98    1
    45   139   140    1
    46   145   143   ar
    47   145   147   ar
    48   162   160   ar
    49   162   161   ar
    50   143   144   ar
    51   160   158   ar
    52   141   140    2
    53   140   148   am
    54   167   168    1
    55   147   146   ar
    56    88    87    1
    57   144   146   ar
    58   101    98    1
    59    98    97    1
    60   161   159   ar
    61   158   157    1
    62   158   159   ar
    63   171   168    1
    64   171   172    1
    65   168   169    1
    66   157   154    1
    67    68    67    2
    68   148   149    1
    69   174   172    1
    70    87    85   ar
    71    87    86   ar
    72   173   172    1
    73    85    83   ar
    74    67    66    1
    75    67    69   am
    76    19    18    1
    77   156   155    2
    78   169   170    2
    79    66    65    1
    80   149   150    1
    81   149   152    1
    82    86    84   ar
    83     8     7    2
    84    11    10    1
    85    11    12    1
    86   154   155    1
    87   154   153    1
    88    62    61    2
    89    70    69    1
    90    70    71    1
    91    83    82   ar
    92   150   151    2
    93    18    15    1
    94    58    56   ar
    95     7     9   am
    96     7     6    1
    97    13    12    2
    98    65    61   am
    99    61    60    1
   100    76    75    2
   101    84    82   ar
   102    73    71   am
   103    73    74    1
   104    71    72    2
   105    82    81    1
   106    56    55    1
   107    56    57   ar
   108     6     5    1
   109    55    52    1
   110    15    14    1
   111    15    16    1
   112    96    95    1
   113    75    74    1
   114    75    77   am
   115    63    60    1
   116    63    64    1
   117    60    59    1
   118    95    94    1
   119    16    20   am
   120    16    17    2
   121    20    21    1
   122    81    78    1
   123    54    53    2
   124     5     2    1
   125    26    25   ar
   126    26    28   ar
   127    77    78    1
   128    78    79    1
   129    24    21    1
   130    24    25    1
   131    52    53    1
   132    52    51    1
   133     3     4    2
   134     3     2    1
   135    21    22    1
   136     1     2    1
   137    25    27   ar
   138    51    45   am
   139    28    29   ar
   140    89    79   am
   141    89    90    1
   142    79    80    2
   143    94    93    1
   144    37    36    2
   145    49    48    2
   146    45    44    1
   147    45    46    2
   148    22    23    2
   149    27    29   ar
   150    27    30   ar
   151    29    31   ar
   152    44    47    1
   153    44    43    1
   154    93    90    1
   155    48    47    1
   156    48    50   am
   157    90    91    1
   158    36    43   am
   159    36    35    1
   160    30    32   ar
   161    31    33   ar
   162    91    92    2
   163    35    38    1
   164    35    34    1
   165    33    32   ar
   166    38    39    1
   167    41    40   ar
   168    39    40    1
   169    40    42   ar
