@<TRIPOS>MOLECULE
tmp/1merB00.pdb
 111 104 0 0 0
SMALL
GASTEIGER

@<TRIPOS>ATOM
      1  N        -21.9150   20.0900   34.2290 N.3     8  ARG8       -0.1245
      2  CA       -21.2210   19.9160   32.9490 C.3     8  ARG8        0.1563
      3  C        -22.0610   20.4930   31.8350 C.2     8  ARG8        0.2260
      4  O        -23.2640   20.2750   31.8400 O.2     8  ARG8       -0.2867
      5  CB       -21.0400   18.4110   32.6800 C.3     8  ARG8        0.0307
      6  CG       -20.1280   17.7180   33.6950 C.3     8  ARG8        0.0489
      7  CD       -20.1850   16.1840   33.6800 C.3     8  ARG8        0.2205
      8  NE       -19.5630   15.5970   32.4960 N.pl3   8  ARG8       -0.0865
      9  CZ       -18.6370   14.6250   32.6510 C.cat   8  ARG8        0.5346
     10  NH1      -18.2460   14.2120   33.8630 N.pl3   8  ARG8        0.1354
     11  NH2      -18.0790   14.0640   31.5730 N.pl3   8  ARG8        0.1354
     12  N        -20.4660   17.4730   25.2260 N.3    23  LEU23      -0.1245
     13  CA       -19.9230   18.4070   26.1980 C.3    23  LEU23       0.1561
     14  C        -19.2840   19.5690   25.4500 C.2    23  LEU23       0.2260
     15  O        -18.5080   19.4020   24.5170 O.2    23  LEU23      -0.2867
     16  CB       -18.9170   17.5360   26.9490 C.3    23  LEU23       0.0270
     17  CG       -18.3210   17.9800   28.2740 C.3    23  LEU23       0.0019
     18  CD1      -19.3690   17.9690   29.3800 C.3    23  LEU23       0.0001
     19  CD2      -17.1530   17.0420   28.6150 C.3    23  LEU23       0.0001
     20  N        -16.6220   22.0570   25.0250 N.3    25  ASP25      -0.1239
     21  CA       -15.3040   21.8770   25.6090 C.3    25  ASP25       0.1674
     22  C        -14.2950   22.8730   25.0660 C.2    25  ASP25       0.2266
     23  O        -13.6670   22.6860   24.0420 O.2    25  ASP25      -0.2867
     24  CB       -14.9260   20.4250   25.3080 C.3    25  ASP25       0.1410
     25  CG       -13.6860   19.9430   26.0000 C.2    25  ASP25       0.3668
     26  OD1      -13.0490   20.6900   26.7330 O.co2  25  ASP25      -0.2456
     27  OD2      -13.3400   18.7980   25.7850 O.co2  25  ASP25      -0.2456
     28  N        -11.3480   23.4170   26.0270 N.3    27  GLY27      -0.1210
     29  CA        -9.9510   23.0280   26.0430 C.3    27  GLY27       0.1956
     30  C         -9.5590   22.1660   24.8770 C.2    27  GLY27       0.2612
     31  O         -8.4020   21.8610   24.6780 O.2    27  GLY27      -0.2717
     32  N        -10.5590   21.7130   24.1250 N.am   28  ALA28      -0.1965
     33  CA       -10.2980   20.7010   23.1090 C.3    28  ALA28       0.1728
     34  C        -10.1770   21.3660   21.7820 C.2    28  ALA28       0.2616
     35  O        -10.9900   22.1960   21.4110 O.2    28  ALA28      -0.2715
     36  CB       -11.4620   19.7260   22.9970 C.3    28  ALA28       0.0334
     37  N         -9.1430   20.9950   21.0470 N.am   29  ASP29      -0.1957
     38  CA        -9.0770   21.6920   19.7660 C.3    29  ASP29       0.1840
     39  C        -10.0120   21.1080   18.7430 C.2    29  ASP29       0.2622
     40  O        -10.4460   21.7850   17.8290 O.2    29  ASP29      -0.2715
     41  CB        -7.6840   21.6590   19.1610 C.3    29  ASP29       0.1450
     42  CG        -6.6300   22.0870   20.1340 C.2    29  ASP29       0.3671
     43  OD1       -6.7420   23.1570   20.7340 O.co2  29  ASP29      -0.2456
     44  OD2       -5.6860   21.3230   20.2780 O.co2  29  ASP29      -0.2456
     45  N        -10.2940   19.8250   18.9300 N.am   30  ASP30      -0.1971
     46  CA       -11.0380   19.0530   17.9430 C.3    30  ASP30       0.1709
     47  C        -12.3320   18.5920   18.5560 C.2    30  ASP30       0.2293
     48  O        -12.4510   18.5750   19.7750 O.2    30  ASP30      -0.2864
     49  CB       -10.2850   17.7720   17.6290 C.3    30  ASP30       0.1436
     50  CG        -8.9260   18.0530   17.0510 C.2    30  ASP30       0.3671
     51  OD1       -8.8280   18.8910   16.1520 O.co2  30  ASP30      -0.2456
     52  OD2       -7.9600   17.4310   17.4990 O.co2  30  ASP30      -0.2456
     53  N        -14.5360   15.3640   19.1350 N.3    32  VAL32      -0.1245
     54  CA       -14.3230   13.9250   19.1460 C.3    32  VAL32       0.1561
     55  C        -15.5550   13.2750   19.7050 C.2    32  VAL32       0.2260
     56  O        -16.0280   13.6540   20.7650 O.2    32  VAL32      -0.2867
     57  CB       -13.1480   13.5480   20.0510 C.3    32  VAL32       0.0252
     58  CG1      -12.8750   12.0570   19.9240 C.3    32  VAL32       0.0019
     59  CG2      -11.8890   14.3180   19.6790 C.3    32  VAL32       0.0019
     60  N         -4.9800   11.0690   18.2710 N.3    47  ILE47      -0.1231
     61  CA        -4.9720   12.3280   19.0190 C.3    47  ILE47       0.1692
     62  C         -4.4950   12.0690   20.4120 C.2    47  ILE47       0.2593
     63  O         -4.5740   10.9580   20.9070 O.2    47  ILE47      -0.2718
     64  CB        -6.3560   13.0010   19.0860 C.3    47  ILE47       0.0266
     65  CG1       -7.4530   12.1790   19.7560 C.3    47  ILE47       0.0019
     66  CG2       -6.8350   13.4690   17.7120 C.3    47  ILE47       0.0020
     67  CD1       -8.5750   13.0500   20.3120 C.3    47  ILE47       0.0001
     68  N         -3.9770   13.1130   21.0140 N.am   48  GLY48      -0.1942
     69  CA        -3.4360   12.9940   22.3500 C.3    48  GLY48       0.2014
     70  C         -4.3790   13.6640   23.3090 C.2    48  GLY48       0.2639
     71  O         -4.9790   14.6940   23.0210 O.2    48  GLY48      -0.2714
     72  N         -4.4890   13.0090   24.4370 N.am   49  GLY49      -0.1939
     73  CA        -5.3080   13.4610   25.5340 C.3    49  GLY49       0.2014
     74  C         -4.5200   13.2550   26.7890 C.2    49  GLY49       0.2638
     75  O         -3.3040   13.2710   26.8150 O.2    49  GLY49      -0.2714
     76  N         -5.2500   13.0480   27.8570 N.am   50  ILE50      -0.1977
     77  CA        -4.5690   12.8080   29.1070 C.3    50  ILE50       0.1596
     78  C         -4.5860   11.3120   29.2660 C.2    50  ILE50       0.2287
     79  O         -5.5690   10.6610   28.9810 O.2    50  ILE50      -0.2864
     80  CB        -5.3600   13.5910   30.1540 C.3    50  ILE50       0.0276
     81  CG1       -4.4500   14.5590   30.8740 C.3    50  ILE50       0.0022
     82  CG2       -6.1530   12.7830   31.1900 C.3    50  ILE50       0.0022
     83  CD1       -5.2900   15.5020   31.7190 C.3    50  ILE50       0.0001
     84  N        -13.6560    7.6270   22.4810 N.3    80  THR80      -0.1204
     85  CA       -13.6460    8.5130   23.6310 C.3    80  THR80       0.1979
     86  C        -14.7240    7.9920   24.5300 C.2    80  THR80       0.2460
     87  O        -15.6580    7.3580   24.0610 O.2    80  THR80      -0.2732
     88  CB       -13.9260    9.9410   23.1540 C.3    80  THR80       0.1783
     89  OG1      -14.0850   10.8210   24.2660 O.3    80  THR80      -0.2211
     90  CG2      -15.1320   10.0280   22.2470 C.3    80  THR80       0.0376
     91  N        -14.5730    8.2390   25.8260 N.am   81  PRO81      -0.2717
     92  CA       -15.6910    7.8820   26.6880 C.3    81  PRO81       0.1535
     93  C        -16.7900    8.9440   26.7720 C.2    81  PRO81       0.2598
     94  O        -17.8240    8.7040   27.3790 O.2    81  PRO81      -0.2715
     95  CB       -14.9530    7.6270   28.0050 C.3    81  PRO81       0.0310
     96  CG       -13.7950    8.6350   28.0250 C.3    81  PRO81       0.0237
     97  CD       -13.4000    8.7360   26.5580 C.3    81  PRO81       0.0939
     98  N        -16.5670   10.1180   26.1650 N.am   82  VAL82      -0.1978
     99  CA       -17.5900   11.1540   26.2200 C.3    82  VAL82       0.1596
    100  C        -17.5400   11.9040   24.9250 C.2    82  VAL82       0.2287
    101  O        -16.5210   11.9660   24.2690 O.2    82  VAL82      -0.2864
    102  CB       -17.3200   12.0830   27.4170 C.3    82  VAL82       0.0276
    103  CG1      -16.0040   12.8530   27.2590 C.3    82  VAL82       0.0022
    104  CG2      -18.4850   13.0290   27.7050 C.3    82  VAL82       0.0022
    105  N        -17.3260   15.1060   22.7120 N.3    84  VAL84      -0.1245
    106  CA       -16.6640   16.3850   22.9860 C.3    84  VAL84       0.1561
    107  C        -16.7530   17.2860   21.7610 C.2    84  VAL84       0.2260
    108  O        -16.3140   16.9260   20.6760 O.2    84  VAL84      -0.2867
    109  CB       -15.1840   16.0730   23.2590 C.3    84  VAL84       0.0252
    110  CG1      -14.2990   17.3080   23.2290 C.3    84  VAL84       0.0019
    111  CG2      -14.9920   15.2790   24.5480 C.3    84  VAL84       0.0019
@<TRIPOS>BOND
     1    51    50   ar
     2    50    52   ar
     3    50    49    1
     4    49    46    1
     5    66    64    1
     6    40    39    2
     7    46    47    1
     8    46    45    1
     9    60    61    1
    10    47    48    2
    11    39    45   am
    12    39    38    1
    13    61    64    1
    14    61    62    1
    15    64    65    1
    16    53    54    1
    17    54    55    1
    18    54    57    1
    19    41    38    1
    20    41    42    1
    21    59    57    1
    22    55    56    2
    23    65    67    1
    24    38    37    1
    25    58    57    1
    26    42    44   ar
    27    42    43   ar
    28    62    63    2
    29    62    68   am
    30   108   107    2
    31    68    69    1
    32    37    34   am
    33    35    34    2
    34   107   106    1
    35    34    33    1
    36    90    88    1
    37    69    70    1
    38    84    85    1
    39   105   106    1
    40   106   109    1
    41    36    33    1
    42    71    70    2
    43    33    32    1
    44    88    85    1
    45    88    89    1
    46   110   109    1
    47   109   111    1
    48    70    72   am
    49    85    86    1
    50    23    22    2
    51    87    86    2
    52    32    30   am
    53   101   100    2
    54    72    73    1
    55    15    14    2
    56    86    91   am
    57    31    30    2
    58    30    29    1
    59   100    99    1
    60    20    21    1
    61    22    21    1
    62    12    13    1
    63    24    21    1
    64    24    25    1
    65    14    13    1
    66    73    74    1
    67    27    25   ar
    68    91    97    1
    69    91    92    1
    70    25    26   ar
    71    28    29    1
    72    98    99    1
    73    98    93   am
    74    13    16    1
    75    99   102    1
    76    97    96    1
    77    92    93    1
    78    92    95    1
    79    93    94    2
    80    74    75    2
    81    74    76   am
    82    16    17    1
    83   103   102    1
    84   102   104    1
    85    76    77    1
    86    95    96    1
    87    17    19    1
    88    17    18    1
    89    79    78    2
    90    77    78    1
    91    77    80    1
    92    80    81    1
    93    80    82    1
    94    81    83    1
    95    11     9    1
    96     3     4    2
    97     3     2    1
    98     8     9    2
    99     8     7    1
   100     9    10    1
   101     5     2    1
   102     5     6    1
   103     2     1    1
   104     7     6    1
