@<TRIPOS>MOLECULE
tmp/1mewA01.pdb
 158 148 0 0 0
SMALL
GASTEIGER

@<TRIPOS>ATOM
      1  N         61.6430   47.5940   16.4780 N.3    57  ILE57      -0.1245
      2  CA        60.3160   47.0560   16.1840 C.3    57  ILE57       0.1561
      3  C         59.7370   47.8630   15.0210 C.2    57  ILE57       0.2260
      4  O         58.7950   48.6440   15.1940 O.2    57  ILE57      -0.2867
      5  CB        59.3880   47.2040   17.4140 C.3    57  ILE57       0.0252
      6  CG1       60.1560   46.8080   18.6830 C.3    57  ILE57       0.0019
      7  CG2       58.1450   46.3350   17.2390 C.3    57  ILE57       0.0019
      8  CD1       59.3380   46.8460   19.9590 C.3    57  ILE57       0.0001
      9  N         51.0720   45.9250   20.7890 N.3   118  ASN118     -0.1225
     10  CA        50.4880   47.2240   21.0670 C.3   118  ASN118      0.1785
     11  C         49.5150   47.0950   22.2330 C.2   118  ASN118      0.2598
     12  O         49.1070   45.9920   22.5990 O.2   118  ASN118     -0.2718
     13  CB        49.7740   47.7600   19.8220 C.3   118  ASN118      0.1169
     14  CG        48.6060   46.8920   19.3970 C.2   118  ASN118      0.2627
     15  OD1       47.6100   46.7850   20.1080 O.2   118  ASN118     -0.2716
     16  ND2       48.7240   46.2690   18.2310 N.am  118  ASN118     -0.0877
     17  N         49.1440   48.2260   22.8160 N.am  119  THR119     -0.1939
     18  CA        48.2360   48.2290   23.9530 C.3   119  THR119      0.2028
     19  C         46.7600   48.1430   23.5570 C.2   119  THR119      0.2642
     20  O         45.8850   48.3930   24.3830 O.2   119  THR119     -0.2714
     21  CB        48.4480   49.4910   24.7920 C.3   119  THR119      0.1808
     22  OG1       48.2640   50.6350   23.9570 O.3   119  THR119     -0.2208
     23  CG2       49.8620   49.5260   25.3660 C.3   119  THR119      0.0379
     24  N         46.4840   47.7820   22.3050 N.am  120  ARG120     -0.1977
     25  CA        45.1000   47.6800   21.8370 C.3   120  ARG120      0.1597
     26  C         44.5780   46.2590   21.6140 C.2   120  ARG120      0.2287
     27  O         43.6190   45.8480   22.2620 O.2   120  ARG120     -0.2864
     28  CB        44.9090   48.4940   20.5520 C.3   120  ARG120      0.0334
     29  CG        44.8910   50.0100   20.7550 C.3   120  ARG120      0.0492
     30  CD        44.8750   50.7290   19.4090 C.3   120  ARG120      0.2205
     31  NE        44.8760   52.1880   19.5220 N.pl3 120  ARG120     -0.0865
     32  CZ        43.8180   52.9160   19.8660 C.cat 120  ARG120      0.5346
     33  NH1       42.6610   52.3250   20.1400 N.pl3 120  ARG120      0.1354
     34  NH2       43.9090   54.2390   19.9120 N.pl3 120  ARG120      0.1354
     35  N         55.3440   48.2330   21.9510 N.3   140  ASP140     -0.1225
     36  CA        55.9200   49.2240   21.0620 C.3   140  ASP140      0.1805
     37  C         55.1600   50.5520   21.1080 C.2   140  ASP140      0.2598
     38  O         54.0460   50.6590   20.5970 O.2   140  ASP140     -0.2718
     39  CB        55.9340   48.6320   19.6510 C.3   140  ASP140      0.1424
     40  CG        56.4170   49.6030   18.5990 C.2   140  ASP140      0.3668
     41  OD1       57.2200   50.5080   18.9130 O.co2 140  ASP140     -0.2456
     42  OD2       55.9970   49.4380   17.4370 O.co2 140  ASP140     -0.2456
     43  N         55.7670   51.5620   21.7270 N.am  141  SER141     -0.1938
     44  CA        55.1360   52.8760   21.8430 C.3   141  SER141      0.2055
     45  C         56.1620   53.9840   22.0560 C.2   141  SER141      0.2644
     46  O         57.2500   53.7300   22.5740 O.2   141  SER141     -0.2714
     47  CB        54.1460   52.8710   23.0120 C.3   141  SER141      0.2130
     48  OG        53.6370   54.1710   23.2610 O.3   141  SER141     -0.2179
     49  N         55.8180   55.2120   21.6650 N.am  142  SER142     -0.1935
     50  CA        56.7340   56.3310   21.8470 C.3   142  SER142      0.2055
     51  C         56.6580   56.8390   23.2800 C.2   142  SER142      0.2643
     52  O         57.6830   57.1180   23.8980 O.2   142  SER142     -0.2714
     53  CB        56.4330   57.4650   20.8590 C.3   142  SER142      0.2130
     54  OG        55.1210   57.9710   20.9990 O.3   142  SER142     -0.2179
     55  N         55.4470   56.9410   23.8140 N.am  143  ASP143     -0.1971
     56  CA        55.2530   57.3940   25.1890 C.3   143  ASP143      0.1709
     57  C         54.6940   56.2410   26.0260 C.2   143  ASP143      0.2293
     58  O         53.4810   56.0360   26.0930 O.2   143  ASP143     -0.2864
     59  CB        54.2980   58.5970   25.2150 C.3   143  ASP143      0.1436
     60  CG        53.9270   59.0370   26.6320 C.2   143  ASP143      0.3671
     61  OD1       54.6180   58.6660   27.6060 O.co2 143  ASP143     -0.2456
     62  OD2       52.9350   59.7800   26.7630 O.co2 143  ASP143     -0.2456
     63  N         47.6880   52.5920   29.7030 N.3   148  TRP148     -0.1241
     64  CA        47.4140   51.5390   28.7300 C.3   148  TRP148      0.1605
     65  C         48.4880   50.4530   28.8000 C.2   148  TRP148      0.2264
     66  O         48.1940   49.2660   28.6610 O.2   148  TRP148     -0.2867
     67  CB        47.3470   52.1090   27.3090 C.3   148  TRP148      0.0550
     68  CG        46.2110   53.0640   27.0850 C.ar  148  TRP148      0.0003
     69  CD1       46.3060   54.4010   26.8270 C.ar  148  TRP148      0.0946
     70  CD2       44.8070   52.7610   27.1140 C.ar  148  TRP148      0.0152
     71  NE1       45.0510   54.9500   26.6940 N.ar  148  TRP148     -0.2442
     72  CE2       44.1140   53.9660   26.8660 C.ar  148  TRP148      0.0810
     73  CE3       44.0680   51.5870   27.3250 C.ar  148  TRP148      0.0012
     74  CZ2       42.7170   54.0350   26.8230 C.ar  148  TRP148      0.0191
     75  CZ3       42.6750   51.6550   27.2840 C.ar  148  TRP148      0.0001
     76  CH2       42.0170   52.8720   27.0350 C.ar  148  TRP148      0.0015
     77  N         58.2460   53.7120   25.4680 N.3   170  ASN170     -0.1240
     78  CA        59.4910   54.2950   25.9610 C.3   170  ASN170      0.1653
     79  C         59.3090   55.3730   27.0220 C.2   170  ASN170      0.2266
     80  O         58.2780   56.0410   27.0780 O.2   170  ASN170     -0.2867
     81  CB        60.2790   54.8830   24.7880 C.3   170  ASN170      0.1155
     82  CG        60.7710   53.8190   23.8400 C.2   170  ASN170      0.2627
     83  OD1       60.2660   52.6950   23.8490 O.2   170  ASN170     -0.2716
     84  ND2       61.7560   54.1620   23.0120 N.am  170  ASN170     -0.0877
     85  N         62.4300   50.2490   27.9880 N.3   189  LYS189     -0.1245
     86  CA        63.0660   50.8950   26.8500 C.3   189  LYS189      0.1561
     87  C         63.1340   52.4160   27.0240 C.2   189  LYS189      0.2260
     88  O         62.1460   53.0600   27.3730 O.2   189  LYS189     -0.2867
     89  CB        62.3110   50.5090   25.5740 C.3   189  LYS189      0.0271
     90  CG        63.1770   50.4040   24.3400 C.3   189  LYS189      0.0035
     91  CD        62.7690   49.2180   23.4610 C.3   189  LYS189      0.0206
     92  CE        61.3760   49.3980   22.8500 C.3   189  LYS189      0.1093
     93  NZ        61.2670   50.6780   22.0900 N.3   189  LYS189     -0.1314
     94  N         63.9910   56.2700   25.4840 N.3   191  GLY191     -0.1210
     95  CA        64.1370   57.0580   24.2800 C.3   191  GLY191      0.1956
     96  C         62.9210   57.6440   23.5990 C.2   191  GLY191      0.2612
     97  O         62.0520   56.9250   23.1080 O.2   191  GLY191     -0.2717
     98  N         62.8760   58.9710   23.5750 N.am  192  ILE192     -0.1965
     99  CA        61.8190   59.7150   22.9070 C.3   192  ILE192      0.1727
    100  C         62.4970   60.9170   22.2620 C.2   192  ILE192      0.2616
    101  O         63.0310   61.7880   22.9540 O.2   192  ILE192     -0.2715
    102  CB        60.7450   60.2290   23.8810 C.3   192  ILE192      0.0290
    103  CG1       60.0290   59.0550   24.5540 C.3   192  ILE192      0.0022
    104  CG2       59.7350   61.0710   23.1170 C.3   192  ILE192      0.0023
    105  CD1       58.9700   59.4810   25.5600 C.3   192  ILE192      0.0001
    106  N         62.4840   60.9590   20.9350 N.am  193  GLY193     -0.1955
    107  CA        63.1150   62.0650   20.2410 C.3   193  GLY193      0.1869
    108  C         64.6140   61.8480   20.2050 C.2   193  GLY193      0.2309
    109  O         65.3800   62.5400   20.8980 O.2   193  GLY193     -0.2863
    110  N         58.0020   66.7030   22.4780 N.3   202  ILE202     -0.1245
    111  CA        58.3020   65.8610   23.6290 C.3   202  ILE202      0.1561
    112  C         59.5980   65.0960   23.3850 C.2   202  ILE202      0.2260
    113  O         59.9110   64.7230   22.2560 O.2   202  ILE202     -0.2867
    114  CB        57.1650   64.8360   23.9360 C.3   202  ILE202      0.0252
    115  CG1       57.0420   63.8150   22.8070 C.3   202  ILE202      0.0019
    116  CG2       55.8370   65.5630   24.1300 C.3   202  ILE202      0.0019
    117  CD1       56.1060   62.6500   23.1310 C.3   202  ILE202      0.0001
    118  N         67.1770   53.0510   23.3150 N.3   233  ASP233     -0.1239
    119  CA        66.5540   52.9510   21.9980 C.3   233  ASP233      0.1674
    120  C         66.6540   54.2260   21.1640 C.2   233  ASP233      0.2266
    121  O         66.0470   55.2440   21.4940 O.2   233  ASP233     -0.2867
    122  CB        65.0810   52.5490   22.1820 C.3   233  ASP233      0.1410
    123  CG        64.3360   52.3690   20.8670 C.2   233  ASP233      0.3668
    124  OD1       64.9780   52.2090   19.8040 O.co2 233  ASP233     -0.2456
    125  OD2       63.0880   52.3690   20.9090 O.co2 233  ASP233     -0.2456
    126  N         57.8780   54.1020   12.0030 N.3   283  GLU283     -0.1231
    127  CA        56.5780   53.5060   12.2710 C.3   283  GLU283      0.1699
    128  C         55.5130   54.5850   12.3940 C.2   283  GLU283      0.2592
    129  O         54.3200   54.3020   12.3340 O.2   283  GLU283     -0.2718
    130  CB        56.6410   52.6820   13.5550 C.3   283  GLU283      0.0402
    131  CG        57.4460   51.4080   13.4100 C.3   283  GLU283      0.1161
    132  CD        56.7890   50.4160   12.4640 C.2   283  GLU283      0.3649
    133  OE1       55.6880   49.9270   12.7850 O.co2 283  GLU283     -0.2457
    134  OE2       57.3700   50.1260   11.4010 O.co2 283  GLU283     -0.2457
    135  N         55.9540   55.8270   12.5620 N.am  284  GLY284     -0.1957
    136  CA        55.0220   56.9320   12.6810 C.3   284  GLY284      0.1869
    137  C         54.7110   57.5880   11.3450 C.2   284  GLY284      0.2309
    138  O         53.8910   58.5020   11.2740 O.2   284  GLY284     -0.2863
    139  N         51.6970   52.1240    9.7670 N.3   289  ARG289     -0.1245
    140  CA        50.5860   52.2670   10.7150 C.3   289  ARG289      0.1563
    141  C         49.1900   52.2880   10.0970 C.2   289  ARG289      0.2260
    142  O         48.2130   52.6090   10.7740 O.2   289  ARG289     -0.2867
    143  CB        50.7830   53.5300   11.5700 C.3   289  ARG289      0.0307
    144  CG        51.0310   54.8150   10.7790 C.3   289  ARG289      0.0489
    145  CD        51.4460   55.9670   11.6880 C.3   289  ARG289      0.2205
    146  NE        50.3070   56.6380   12.3080 N.pl3 289  ARG289     -0.0865
    147  CZ        49.5080   57.4920   11.6750 C.cat 289  ARG289      0.5346
    148  NH1       49.7240   57.7840   10.3980 N.pl3 289  ARG289      0.1354
    149  NH2       48.4950   58.0590   12.3190 N.pl3 289  ARG289      0.1354
    150  N         54.5180   61.3940   12.3410 N.3   292  GLU292     -0.1245
    151  CA        55.5280   61.3680   13.3940 C.3   292  GLU292      0.1567
    152  C         56.8620   60.8440   12.8790 C.2   292  GLU292      0.2260
    153  O         57.8640   60.8650   13.5950 O.2   292  GLU292     -0.2867
    154  CB        55.0720   60.4840   14.5570 C.3   292  GLU292      0.0388
    155  CG        53.8060   60.9440   15.2560 C.3   292  GLU292      0.1160
    156  CD        53.4830   60.0870   16.4690 C.2   292  GLU292      0.3649
    157  OE1       53.3190   58.8540   16.3060 O.co2 292  GLU292     -0.2457
    158  OE2       53.3970   60.6470   17.5860 O.co2 292  GLU292     -0.2457
@<TRIPOS>BOND
     1   139   140    1
     2   141   140    1
     3   141   142    2
     4   148   147    1
     5   140   143    1
     6   144   143    1
     7   144   145    1
     8   138   137    2
     9   137   136    1
    10   134   132   ar
    11   147   146    2
    12   147   149    1
    13   145   146    1
    14   126   127    1
    15   127   128    1
    16   127   130    1
    17   129   128    2
    18   150   151    1
    19   128   135   am
    20   132   133   ar
    21   132   131    1
    22   135   136    1
    23   152   151    1
    24   152   153    2
    25   151   154    1
    26   131   130    1
    27   154   155    1
    28     3     4    2
    29     3     2    1
    30   155   156    1
    31     2     1    1
    32     2     5    1
    33   157   156   ar
    34   156   158   ar
    35     7     5    1
    36     5     6    1
    37    42    40   ar
    38    16    14   am
    39    40    41   ar
    40    40    39    1
    41     6     8    1
    42    14    13    1
    43    14    15    2
    44    30    31    1
    45    30    29    1
    46    31    32    2
    47    39    36    1
    48   124   123   ar
    49    13    10    1
    50    32    34    1
    51    32    33    1
    52   108   107    1
    53   108   109    2
    54   107   106    1
    55    28    29    1
    56    28    25    1
    57    38    37    2
    58     9    10    1
    59    53    54    1
    60    53    50    1
    61   123   125   ar
    62   123   122    1
    63   106   100   am
    64    36    37    1
    65    36    35    1
    66    10    11    1
    67    37    43   am
    68   120   121    2
    69   120   119    1
    70    26    25    1
    71    26    27    2
    72    49    50    1
    73    49    45   am
    74    43    44    1
    75    25    24    1
    76    44    45    1
    77    44    47    1
    78    50    51    1
    79   119   122    1
    80   119   118    1
    81    45    46    2
    82    93    92    1
    83    11    12    2
    84    11    17   am
    85   113   112    2
    86   100    99    1
    87   100   101    2
    88    24    19   am
    89   110   111    1
    90   115   117    1
    91   115   114    1
    92    17    18    1
    93    92    91    1
    94    99    98    1
    95    99   102    1
    96    47    48    1
    97    84    82   am
    98    97    96    2
    99   104   102    1
   100    51    55   am
   101    51    52    2
   102   112   111    1
   103    91    90    1
   104    19    18    1
   105    19    20    2
   106    98    96   am
   107    96    95    1
   108   111   114    1
   109    55    56    1
   110    82    83    2
   111    82    81    1
   112   102   103    1
   113   114   116    1
   114    18    21    1
   115    22    21    1
   116    95    94    1
   117    90    89    1
   118   103   105    1
   119    81    78    1
   120    21    23    1
   121    56    59    1
   122    56    57    1
   123    59    60    1
   124    77    78    1
   125    89    86    1
   126    78    79    1
   127    57    58    2
   128    60    62   ar
   129    60    61   ar
   130    71    69   ar
   131    71    72   ar
   132    74    72   ar
   133    74    76   ar
   134    69    68   ar
   135    86    87    1
   136    86    85    1
   137    72    70   ar
   138    79    80    2
   139    87    88    2
   140    76    75   ar
   141    68    70   ar
   142    68    67    1
   143    70    73   ar
   144    75    73   ar
   145    67    64    1
   146    66    65    2
   147    64    65    1
   148    64    63    1
