@<TRIPOS>MOLECULE
tmp/1mexA00.pdb
 105 101 0 0 0
SMALL
GASTEIGER

@<TRIPOS>ATOM
      1  N        -10.5730   10.3700   28.6270 N.3    32  ASN32      -0.1240
      2  CA        -9.1570   10.6880   28.3840 C.3    32  ASN32       0.1653
      3  C         -8.9360   11.5900   27.1880 C.2    32  ASN32       0.2266
      4  O         -8.3930   11.1940   26.1570 O.2    32  ASN32      -0.2867
      5  CB        -8.3670    9.3880   28.2410 C.3    32  ASN32       0.1155
      6  CG        -8.1920    8.6130   29.5410 C.2    32  ASN32       0.2627
      7  OD1       -8.2700    7.3620   29.5960 O.2    32  ASN32      -0.2716
      8  ND2       -7.9230    9.2770   30.6440 N.am   32  ASN32      -0.0877
      9  N         -7.9210   15.7870   26.3500 N.3    34  ALA34      -0.1245
     10  CA        -7.3490   17.0550   26.7530 C.3    34  ALA34       0.1562
     11  C         -7.7120   18.1020   25.7090 C.2    34  ALA34       0.2260
     12  O         -7.9410   17.8190   24.5510 O.2    34  ALA34      -0.2867
     13  CB        -5.8390   16.9030   26.8740 C.3    34  ALA34       0.0290
     14  N         -6.1150   21.9880   24.3480 N.3    36  PHE36      -0.1241
     15  CA        -4.9670   22.8720   24.2960 C.3    36  PHE36       0.1605
     16  C         -5.3150   24.1440   23.5520 C.2    36  PHE36       0.2264
     17  O         -6.1300   24.1410   22.6320 O.2    36  PHE36      -0.2867
     18  CB        -3.8400   22.2050   23.5220 C.3    36  PHE36       0.0534
     19  CG        -3.4190   20.9070   24.1140 C.ar   36  PHE36      -0.0203
     20  CD1       -2.4870   20.9100   25.1220 C.ar   36  PHE36      -0.0042
     21  CD2       -3.9580   19.7040   23.6650 C.ar   36  PHE36      -0.0042
     22  CE1       -2.1340   19.7160   25.7280 C.ar   36  PHE36      -0.0003
     23  CE2       -3.5990   18.5280   24.2910 C.ar   36  PHE36      -0.0003
     24  CZ        -2.6480   18.5160   25.3030 C.ar   36  PHE36      -0.0000
     25  N         -1.8040   23.5240   27.8000 N.3    46  THR46      -0.1218
     26  CA        -2.8380   22.6600   28.3290 C.3    46  THR46       0.1862
     27  C         -3.8790   23.4960   29.0560 C.2    46  THR46       0.2287
     28  O         -3.5760   24.2770   29.9730 O.2    46  THR46      -0.2866
     29  CB        -2.2450   21.6220   29.3050 C.3    46  THR46       0.1770
     30  OG1       -1.1130   20.9760   28.7550 O.3    46  THR46      -0.2211
     31  CG2       -3.2890   20.5670   29.6390 C.3    46  THR46       0.0375
     32  N         -7.7520   18.5260   31.1690 N.3    49  TYR49      -0.1227
     33  CA        -7.3980   17.1130   31.0300 C.3    49  TYR49       0.1736
     34  C         -8.5020   16.3030   31.6710 C.2    49  TYR49       0.2596
     35  O         -9.3520   16.8200   32.4270 O.2    49  TYR49      -0.2718
     36  CB        -5.9930   16.8620   31.6670 C.3    49  TYR49       0.0548
     37  CG        -6.0210   17.0610   33.1540 C.ar   49  TYR49      -0.0200
     38  CD1       -6.1640   15.9900   34.0160 C.ar   49  TYR49      -0.0009
     39  CD2       -5.9530   18.3290   33.7390 C.ar   49  TYR49      -0.0009
     40  CE1       -6.2000   16.1510   35.3790 C.ar   49  TYR49       0.0417
     41  CE2       -6.0030   18.5170   35.0960 C.ar   49  TYR49       0.0417
     42  CZ        -6.1270   17.4350   35.9020 C.ar   49  TYR49       0.1957
     43  OH        -6.1890   17.6340   37.2540 O.3    49  TYR49      -0.2866
     44  N         -8.5090   15.0010   31.3950 N.am   50  SER50      -0.1952
     45  CA        -9.5670   14.1210   31.9010 C.3    50  SER50       0.1924
     46  C        -10.9590   14.6750   31.5660 C.2    50  SER50       0.2314
     47  O        -11.8950   14.5310   32.3400 O.2    50  SER50      -0.2863
     48  CB        -9.3830   13.9110   33.3860 C.3    50  SER50       0.2116
     49  OG        -8.2960   13.0050   33.6190 O.3    50  SER50      -0.2180
     50  N         -6.4460   22.4730   34.0920 N.3    55  TYR55      -0.1241
     51  CA        -5.0250   22.4170   34.4050 C.3    55  TYR55       0.1605
     52  C         -4.6790   23.5560   35.3490 C.2    55  TYR55       0.2264
     53  O         -5.2690   24.6400   35.2790 O.2    55  TYR55      -0.2867
     54  CB        -4.2210   22.4210   33.0580 C.3    55  TYR55       0.0534
     55  CG        -2.7720   22.1620   33.3800 C.ar   55  TYR55      -0.0201
     56  CD1       -2.2840   20.8820   33.4600 C.ar   55  TYR55      -0.0009
     57  CD2       -1.8890   23.1880   33.6640 C.ar   55  TYR55      -0.0009
     58  CE1       -0.9710   20.6170   33.7690 C.ar   55  TYR55       0.0417
     59  CE2       -0.5780   22.9150   34.0200 C.ar   55  TYR55       0.0417
     60  CZ        -0.1150   21.6330   34.0780 C.ar   55  TYR55       0.1957
     61  OH         1.2000   21.3760   34.4020 O.3    55  TYR55      -0.2866
     62  N         -7.5520   16.3920   22.0280 N.3    89  GLN89      -0.1245
     63  CA        -6.6670   15.2720   21.8910 C.3    89  GLN89       0.1566
     64  C         -7.1720   14.1130   22.7210 C.2    89  GLN89       0.2260
     65  O         -7.6150   14.3550   23.8420 O.2    89  GLN89      -0.2867
     66  CB        -5.2710   15.7050   22.3880 C.3    89  GLN89       0.0367
     67  CG        -4.2220   14.6360   22.3000 C.3    89  GLN89       0.0905
     68  CD        -3.5000   14.4210   23.5900 C.2    89  GLN89       0.2608
     69  OE1       -3.2970   15.2260   24.4810 O.2    89  GLN89      -0.2717
     70  NE2       -3.1220   13.1670   23.7910 N.am   89  GLN89      -0.0878
     71  N         -5.9930   10.5360   24.6570 N.3    91  TYR91      -0.1241
     72  CA        -4.8570    9.7480   25.1180 C.3    91  TYR91       0.1605
     73  C         -5.3740    8.4910   25.7900 C.2    91  TYR91       0.2264
     74  O         -4.7610    7.9500   26.6780 O.2    91  TYR91      -0.2867
     75  CB        -3.9340   10.5630   26.0400 C.3    91  TYR91       0.0534
     76  CG        -4.6540   11.2270   27.1660 C.ar   91  TYR91      -0.0201
     77  CD1       -4.7240   10.6660   28.4220 C.ar   91  TYR91      -0.0009
     78  CD2       -5.3170   12.4450   27.0180 C.ar   91  TYR91      -0.0009
     79  CE1       -5.3860   11.2620   29.4810 C.ar   91  TYR91       0.0417
     80  CE2       -5.9920   13.0620   28.0380 C.ar   91  TYR91       0.0417
     81  CZ        -6.0140   12.4540   29.2820 C.ar   91  TYR91       0.1957
     82  OH        -6.7080   13.0870   30.2400 O.3    91  TYR91      -0.2866
     83  N         -1.6470    8.4520   20.5040 N.3    96  TYR96      -0.1241
     84  CA        -2.4200    9.6410   20.8650 C.3    96  TYR96       0.1605
     85  C         -2.7270   10.4010   19.6020 C.2    96  TYR96       0.2264
     86  O         -1.8710   10.4200   18.7020 O.2    96  TYR96      -0.2867
     87  CB        -1.5960   10.4920   21.8230 C.3    96  TYR96       0.0534
     88  CG        -1.2970    9.8730   23.1640 C.ar   96  TYR96      -0.0201
     89  CD1       -1.9310    8.7560   23.6690 C.ar   96  TYR96      -0.0009
     90  CD2       -0.3390   10.5210   23.9420 C.ar   96  TYR96      -0.0009
     91  CE1       -1.6140    8.2500   24.9270 C.ar   96  TYR96       0.0417
     92  CE2       -0.0120   10.0190   25.1940 C.ar   96  TYR96       0.0417
     93  CZ        -0.6440    8.8930   25.6690 C.ar   96  TYR96       0.1957
     94  OH        -0.2990    8.4500   26.9170 O.3    96  TYR96      -0.2866
     95  N         -4.9000   13.9630   17.7700 N.3    98  PHE98      -0.1241
     96  CA        -5.3990   15.3050   17.9810 C.3    98  PHE98       0.1605
     97  C         -6.4740   15.6470   16.9450 C.2    98  PHE98       0.2264
     98  O         -6.4360   15.1520   15.8030 O.2    98  PHE98      -0.2867
     99  CB        -4.2690   16.3100   17.7920 C.3    98  PHE98       0.0534
    100  CG        -3.1440   16.2830   18.8080 C.ar   98  PHE98      -0.0203
    101  CD1       -2.0640   15.4130   18.7300 C.ar   98  PHE98      -0.0042
    102  CD2       -3.1490   17.1670   19.8880 C.ar   98  PHE98      -0.0042
    103  CE1       -1.0380   15.4120   19.6840 C.ar   98  PHE98      -0.0003
    104  CE2       -2.1680   17.1870   20.8450 C.ar   98  PHE98      -0.0003
    105  CZ        -1.1220   16.3300   20.7130 C.ar   98  PHE98      -0.0000
@<TRIPOS>BOND
     1    98    97    2
     2    97    96    1
     3    95    96    1
     4    99    96    1
     5    99   100    1
     6    86    85    2
     7   101   100   ar
     8   101   103   ar
     9   100   102   ar
    10    85    84    1
    11   103   105   ar
    12   102   104   ar
    13    83    84    1
    14   105   104   ar
    15    84    87    1
    16    87    88    1
    17    63    62    1
    18    63    66    1
    19    63    64    1
    20    67    66    1
    21    67    68    1
    22    17    16    2
    23    64    65    2
    24    88    89   ar
    25    88    90   ar
    26    18    19    1
    27    18    15    1
    28    16    15    1
    29    68    70   am
    30    68    69    2
    31    21    19   ar
    32    21    23   ar
    33    89    91   ar
    34    90    92   ar
    35    19    20   ar
    36    23    24   ar
    37    15    14    1
    38    12    11    2
    39    71    72    1
    40    91    93   ar
    41    72    73    1
    42    72    75    1
    43    20    22   ar
    44    92    93   ar
    45    24    22   ar
    46    93    94    1
    47    11    10    1
    48    73    74    2
    49    75    76    1
    50     4     3    2
    51     9    10    1
    52    10    13    1
    53    78    76   ar
    54    78    80   ar
    55    76    77   ar
    56     3     2    1
    57    25    26    1
    58    80    81   ar
    59     5     2    1
    60     5     6    1
    61    26    27    1
    62    26    29    1
    63     2     1    1
    64    77    79   ar
    65    30    29    1
    66    27    28    2
    67    81    79   ar
    68    81    82    1
    69    29    31    1
    70     6     7    2
    71     6     8   am
    72    33    32    1
    73    33    36    1
    74    33    34    1
    75    44    34   am
    76    44    45    1
    77    46    45    1
    78    46    47    2
    79    36    37    1
    80    34    35    2
    81    45    48    1
    82    54    55    1
    83    54    51    1
    84    37    39   ar
    85    37    38   ar
    86    55    56   ar
    87    55    57   ar
    88    48    49    1
    89    56    58   ar
    90    57    59   ar
    91    39    41   ar
    92    58    60   ar
    93    38    40   ar
    94    59    60   ar
    95    60    61    1
    96    50    51    1
    97    51    52    1
    98    41    42   ar
    99    53    52    2
   100    40    42   ar
   101    42    43    1
