@<TRIPOS>MOLECULE
tmp/1mezA01.pdb
 214 205 0 0 0
SMALL
GASTEIGER

@<TRIPOS>ATOM
      1  N         70.6450   60.4600   31.7000 N.3    14  TRP14      -0.1227
      2  CA        69.5530   61.2590   32.2530 C.3    14  TRP14       0.1737
      3  C         68.4450   60.3470   32.7760 C.2    14  TRP14       0.2596
      4  O         67.2660   60.6380   32.6110 O.2    14  TRP14      -0.2718
      5  CB        68.9660   62.1990   31.2020 C.3    14  TRP14       0.0564
      6  CG        69.7620   63.4610   30.9420 C.ar   14  TRP14       0.0003
      7  CD1       69.8820   64.5450   31.7680 C.ar   14  TRP14       0.0946
      8  CD2       70.4880   63.7860   29.7490 C.ar   14  TRP14       0.0152
      9  NE1       70.6310   65.5270   31.1580 N.ar   14  TRP14      -0.2442
     10  CE2       71.0150   65.0860   29.9190 C.ar   14  TRP14       0.0810
     11  CE3       70.7410   63.1060   28.5490 C.ar   14  TRP14       0.0012
     12  CZ2       71.7810   65.7190   28.9340 C.ar   14  TRP14       0.0191
     13  CZ3       71.5040   63.7380   27.5670 C.ar   14  TRP14       0.0001
     14  CH2       72.0130   65.0320   27.7680 C.ar   14  TRP14       0.0015
     15  N         68.8320   59.2310   33.3830 N.am   15  GLY15      -0.1942
     16  CA        67.8590   58.3200   33.9480 C.3    15  GLY15       0.2014
     17  C         67.2190   57.3130   33.0120 C.2    15  GLY15       0.2638
     18  O         67.4870   57.3010   31.8120 O.2    15  GLY15      -0.2714
     19  N         66.3820   56.4530   33.5870 N.am   16  ASP16      -0.1971
     20  CA        65.6570   55.4340   32.8460 C.3    16  ASP16       0.1709
     21  C         66.5760   54.5560   32.0090 C.2    16  ASP16       0.2293
     22  O         66.1920   54.0790   30.9340 O.2    16  ASP16      -0.2864
     23  CB        64.6110   56.1080   31.9540 C.3    16  ASP16       0.1436
     24  CG        64.0270   57.3510   32.5950 C.2    16  ASP16       0.3671
     25  OD1       63.6640   57.3010   33.7890 O.co2  16  ASP16      -0.2456
     26  OD2       63.9360   58.3810   31.9080 O.co2  16  ASP16      -0.2456
     27  N         59.6910   60.5130   42.3710 N.3    41  ASN41      -0.1225
     28  CA        59.7940   61.1160   41.0520 C.3    41  ASN41       0.1785
     29  C         60.4990   60.0350   40.2210 C.2    41  ASN41       0.2597
     30  O         60.3550   59.9540   39.0050 O.2    41  ASN41      -0.2718
     31  CB        60.6200   62.4160   41.1170 C.3    41  ASN41       0.1169
     32  CG        61.9970   62.2230   41.7440 C.2    41  ASN41       0.2627
     33  OD1       62.2010   61.3530   42.6040 O.2    41  ASN41      -0.2716
     34  ND2       62.9450   63.0610   41.3370 N.am   41  ASN41      -0.0877
     35  N         61.2410   59.1830   40.9210 N.am   42  ALA42      -0.1966
     36  CA        61.9660   58.0770   40.3100 C.3    42  ALA42       0.1728
     37  C         60.9990   56.9920   39.8590 C.2    42  ALA42       0.2616
     38  O         59.9540   56.7810   40.4730 O.2    42  ALA42      -0.2715
     39  CB        62.9610   57.4850   41.3200 C.3    42  ALA42       0.0334
     40  N         61.3620   56.2930   38.7920 N.am   43  GLY43      -0.1955
     41  CA        60.5200   55.2230   38.2990 C.3    43  GLY43       0.1869
     42  C         61.3890   54.0800   37.8230 C.2    43  GLY43       0.2309
     43  O         62.0390   54.1610   36.7760 O.2    43  GLY43      -0.2863
     44  N         61.1280   73.6520   33.7550 N.3   133  ILE133     -0.1231
     45  CA        62.0580   72.5440   33.9950 C.3   133  ILE133      0.1692
     46  C         61.6640   71.1780   33.4260 C.2   133  ILE133      0.2593
     47  O         62.5220   70.4250   32.9600 O.2   133  ILE133     -0.2718
     48  CB        62.3100   72.3530   35.5130 C.3   133  ILE133      0.0266
     49  CG1       62.7920   73.6630   36.1370 C.3   133  ILE133      0.0019
     50  CG2       63.3350   71.2490   35.7390 C.3   133  ILE133      0.0020
     51  CD1       64.0830   74.1740   35.5610 C.3   133  ILE133      0.0001
     52  N         60.3800   70.8500   33.4680 N.am  134  GLY134     -0.1942
     53  CA        59.9430   69.5550   32.9740 C.3   134  GLY134      0.2014
     54  C         59.7860   68.5900   34.1380 C.2   134  GLY134      0.2640
     55  O         59.7900   67.3750   33.9720 O.2   134  GLY134     -0.2714
     56  N         59.6580   69.1590   35.3290 N.am  135  THR135     -0.1936
     57  CA        59.4810   68.4230   36.5760 C.3   135  THR135      0.2028
     58  C         58.4050   67.3360   36.4790 C.2   135  THR135      0.2642
     59  O         57.4580   67.4620   35.7020 O.2   135  THR135     -0.2714
     60  CB        59.0810   69.4050   37.6990 C.3   135  THR135      0.1808
     61  OG1       60.2130   70.2020   38.0730 O.3   135  THR135     -0.2208
     62  CG2       58.5560   68.6730   38.8880 C.3   135  THR135      0.0379
     63  N         58.5490   66.2740   37.2680 N.am  136  THR136     -0.1950
     64  CA        57.5590   65.2010   37.2760 C.3   136  THR136      0.1897
     65  C         56.3600   65.6450   38.1170 C.2   136  THR136      0.2313
     66  O         55.3530   64.9410   38.2090 O.2   136  THR136     -0.2863
     67  CB        58.1050   63.9120   37.9070 C.3   136  THR136      0.1794
     68  OG1       58.3970   64.1510   39.2880 O.3   136  THR136     -0.2208
     69  CG2       59.3570   63.4420   37.1820 C.3   136  THR136      0.0378
     70  N         56.2030   65.9140   41.3490 N.3   138  LYS138     -0.1245
     71  CA        56.0610   65.1080   42.5550 C.3   138  LYS138      0.1561
     72  C         56.5400   65.8770   43.7930 C.2   138  LYS138      0.2260
     73  O         56.7390   65.2960   44.8610 O.2   138  LYS138     -0.2867
     74  CB        56.8390   63.7970   42.4150 C.3   138  LYS138      0.0271
     75  CG        56.2360   62.8320   41.4160 C.3   138  LYS138      0.0035
     76  CD        54.8100   62.4660   41.8070 C.3   138  LYS138      0.0206
     77  CE        54.2330   61.4340   40.8630 C.3   138  LYS138      0.1093
     78  NZ        52.7770   61.2270   41.0970 N.3   138  LYS138     -0.1314
     79  N         59.4080   67.1860   44.4150 N.3   140  ILE140     -0.1231
     80  CA        60.8000   66.9630   44.7900 C.3   140  ILE140      0.1692
     81  C         61.6060   68.2500   45.0120 C.2   140  ILE140      0.2592
     82  O         62.2600   68.3960   46.0460 O.2   140  ILE140     -0.2718
     83  CB        61.5150   66.0790   43.7390 C.3   140  ILE140      0.0266
     84  CG1       60.7770   64.7400   43.6130 C.3   140  ILE140      0.0019
     85  CG2       62.9560   65.8490   44.1430 C.3   140  ILE140      0.0020
     86  CD1       60.4890   64.0500   44.9530 C.3   140  ILE140      0.0001
     87  N         61.5550   69.1740   44.0520 N.am  141  GLY141     -0.1957
     88  CA        62.2880   70.4270   44.1830 C.3   141  GLY141      0.1869
     89  C         61.8800   71.2320   45.4090 C.2   141  GLY141      0.2309
     90  O         62.7300   71.6600   46.1980 O.2   141  GLY141     -0.2863
     91  N         67.4420   58.6860   39.4240 N.3   229  ASN229     -0.1240
     92  CA        67.8090   59.7140   38.4640 C.3   229  ASN229      0.1653
     93  C         69.1440   59.3030   37.8380 C.2   229  ASN229      0.2266
     94  O         69.3280   58.1360   37.5120 O.2   229  ASN229     -0.2867
     95  CB        67.9130   61.0550   39.1860 C.3   229  ASN229      0.1155
     96  CG        66.7380   61.2930   40.1250 C.2   229  ASN229      0.2627
     97  OD1       66.9110   61.7080   41.2760 O.2   229  ASN229     -0.2716
     98  ND2       65.5320   61.0210   39.6350 N.am  229  ASN229     -0.0877
     99  N         71.6320   64.4560   35.7410 N.3   233  LEU233     -0.1245
    100  CA        70.4380   65.0310   36.3650 C.3   233  LEU233      0.1561
    101  C         70.8100   65.4750   37.7810 C.2   233  LEU233      0.2260
    102  O         69.9650   65.9570   38.5310 O.2   233  LEU233     -0.2867
    103  CB        69.3020   64.0010   36.4420 C.3   233  LEU233      0.0270
    104  CG        68.5590   63.6130   35.1610 C.3   233  LEU233      0.0019
    105  CD1       67.6170   62.4500   35.4530 C.3   233  LEU233      0.0001
    106  CD2       67.7730   64.8120   34.6290 C.3   233  LEU233      0.0001
    107  N         68.3620   72.3650   34.5210 N.3   242  PHE242     -0.1227
    108  CA        67.4600   71.3220   34.0480 C.3   242  PHE242      0.1736
    109  C         67.9600   69.9910   34.5960 C.2   242  PHE242      0.2595
    110  O         68.4460   69.1410   33.8650 O.2   242  PHE242     -0.2718
    111  CB        67.4220   71.3380   32.5210 C.3   242  PHE242      0.0547
    112  CG        66.9190   72.6390   31.9590 C.ar  242  PHE242     -0.0202
    113  CD1       65.5750   72.9940   32.0950 C.ar  242  PHE242     -0.0042
    114  CD2       67.7930   73.5350   31.3490 C.ar  242  PHE242     -0.0042
    115  CE1       65.1100   74.2210   31.6360 C.ar  242  PHE242     -0.0003
    116  CE2       67.3410   74.7650   30.8850 C.ar  242  PHE242     -0.0003
    117  CZ        65.9960   75.1100   31.0290 C.ar  242  PHE242     -0.0000
    118  N         67.8280   69.8470   35.9110 N.am  243  VAL243     -0.1966
    119  CA        68.2700   68.6730   36.6600 C.3   243  VAL243      0.1727
    120  C         67.2340   68.3820   37.7410 C.2   243  VAL243      0.2617
    121  O         66.2220   69.0750   37.8300 O.2   243  VAL243     -0.2715
    122  CB        69.6010   68.9610   37.3950 C.3   243  VAL243      0.0290
    123  CG1       70.7040   69.3270   36.4090 C.3   243  VAL243      0.0023
    124  CG2       69.3900   70.0980   38.3850 C.3   243  VAL243      0.0023
    125  N         67.4870   67.3560   38.5530 N.am  244  THR244     -0.1937
    126  CA        66.5960   67.0360   39.6640 C.3   244  THR244      0.2028
    127  C         67.2870   67.6940   40.8570 C.2   244  THR244      0.2642
    128  O         68.4390   68.1090   40.7350 O.2   244  THR244     -0.2714
    129  CB        66.4320   65.5020   39.8800 C.3   244  THR244      0.1808
    130  OG1       65.3900   65.2780   40.8400 O.3   244  THR244     -0.2208
    131  CG2       67.7230   64.8630   40.3730 C.3   244  THR244      0.0379
    132  N         66.6100   67.7950   41.9960 N.am  245  SER245     -0.1949
    133  CA        67.1920   68.4850   43.1530 C.3   245  SER245      0.1924
    134  C         67.9610   67.6970   44.2200 C.2   245  SER245      0.2314
    135  O         67.9820   68.0860   45.3930 O.2   245  SER245     -0.2863
    136  CB        66.1040   69.3200   43.8260 C.3   245  SER245      0.2116
    137  OG        65.5990   70.2930   42.9240 O.3   245  SER245     -0.2180
    138  N         66.0930   61.3170   27.2530 N.3   277  ARG277     -0.1231
    139  CA        65.9490   62.3910   28.2040 C.3   277  ARG277      0.1694
    140  C         64.4700   62.7640   28.2760 C.2   277  ARG277      0.2592
    141  O         63.8480   63.0610   27.2560 O.2   277  ARG277     -0.2718
    142  CB        66.7960   63.5900   27.7670 C.3   277  ARG277      0.0321
    143  CG        66.3910   64.8770   28.4240 C.3   277  ARG277      0.0489
    144  CD        67.5180   65.8790   28.5590 C.3   277  ARG277      0.2205
    145  NE        67.4240   66.4730   29.8900 N.pl3 277  ARG277     -0.0865
    146  CZ        68.1940   67.4450   30.3550 C.cat 277  ARG277      0.5346
    147  NH1       69.1410   67.9800   29.6020 N.pl3 277  ARG277      0.1354
    148  NH2       68.0340   67.8530   31.6020 N.pl3 277  ARG277      0.1354
    149  N         63.8930   62.7120   29.4720 N.am  278  VAL278     -0.1966
    150  CA        62.4970   63.0860   29.6290 C.3   278  VAL278      0.1727
    151  C         62.4680   64.3800   30.4270 C.2   278  VAL278      0.2617
    152  O         62.8870   64.4270   31.5760 O.2   278  VAL278     -0.2715
    153  CB        61.6630   61.9760   30.3330 C.3   278  VAL278      0.0290
    154  CG1       62.1680   61.7270   31.7230 C.3   278  VAL278      0.0023
    155  CG2       60.2000   62.3790   30.3610 C.3   278  VAL278      0.0023
    156  N         61.9970   65.4420   29.7870 N.am  279  GLY279     -0.1940
    157  CA        61.9510   66.7360   30.4340 C.3   279  GLY279      0.2014
    158  C         62.6380   67.7510   29.5390 C.2   279  GLY279      0.2638
    159  O         63.0470   67.4160   28.4240 O.2   279  GLY279     -0.2714
    160  N         62.7790   68.9810   30.0250 N.am  280  ILE280     -0.1977
    161  CA        63.4120   70.0500   29.2530 C.3   280  ILE280      0.1596
    162  C         64.9290   70.0970   29.4260 C.2   280  ILE280      0.2287
    163  O         65.4600   69.5940   30.4140 O.2   280  ILE280     -0.2864
    164  CB        62.8050   71.4210   29.6420 C.3   280  ILE280      0.0276
    165  CG1       61.3210   71.4340   29.2700 C.3   280  ILE280      0.0022
    166  CG2       63.5360   72.5590   28.9430 C.3   280  ILE280      0.0022
    167  CD1       61.0340   70.9440   27.8480 C.3   280  ILE280      0.0001
    168  N         57.4810   57.8120   30.1490 N.3   303  GLY303     -0.1210
    169  CA        57.5620   57.8870   31.5990 C.3   303  GLY303      0.1956
    170  C         56.9210   56.7560   32.3760 C.2   303  GLY303      0.2612
    171  O         55.7660   56.3930   32.1310 O.2   303  GLY303     -0.2717
    172  N         57.6750   56.1900   33.3160 N.am  304  VAL304     -0.1965
    173  CA        57.1550   55.1060   34.1430 C.3   304  VAL304      0.1727
    174  C         56.4870   55.7460   35.3610 C.2   304  VAL304      0.2617
    175  O         55.8970   55.0590   36.1960 O.2   304  VAL304     -0.2715
    176  CB        58.2770   54.1350   34.6100 C.3   304  VAL304      0.0290
    177  CG1       59.2460   53.8540   33.4710 C.3   304  VAL304      0.0023
    178  CG2       58.9920   54.7010   35.7840 C.3   304  VAL304      0.0023
    179  N         56.5920   57.0730   35.4380 N.am  305  THR305     -0.1937
    180  CA        55.9970   57.8630   36.5170 C.3   305  THR305      0.2028
    181  C         54.9210   58.8060   35.9680 C.2   305  THR305      0.2642
    182  O         53.7970   58.8350   36.4800 O.2   305  THR305     -0.2714
    183  CB        57.0640   58.7270   37.2660 C.3   305  THR305      0.1808
    184  OG1       57.9240   57.8800   38.0340 O.3   305  THR305     -0.2208
    185  CG2       56.3950   59.7180   38.2000 C.3   305  THR305      0.0379
    186  N         55.2670   59.5640   34.9240 N.am  306  THR306     -0.1950
    187  CA        54.3410   60.5280   34.3250 C.3   306  THR306      0.1897
    188  C         53.5970   60.0440   33.0830 C.2   306  THR306      0.2313
    189  O         52.4490   60.4290   32.8510 O.2   306  THR306     -0.2863
    190  CB        55.0620   61.8330   33.9240 C.3   306  THR306      0.1794
    191  OG1       56.0180   61.5510   32.8950 O.3   306  THR306     -0.2208
    192  CG2       55.7650   62.4530   35.1150 C.3   306  THR306      0.0378
    193  N         54.9020   60.5550   30.0840 N.3   308  ARG308     -0.1245
    194  CA        55.4050   61.4230   29.0230 C.3   308  ARG308      0.1563
    195  C         56.2830   60.6680   28.0390 C.2   308  ARG308      0.2260
    196  O         56.9410   59.6950   28.3990 O.2   308  ARG308     -0.2867
    197  CB        56.2440   62.5630   29.6040 C.3   308  ARG308      0.0307
    198  CG        55.4910   63.5990   30.4150 C.3   308  ARG308      0.0489
    199  CD        56.4750   64.5830   31.0360 C.3   308  ARG308      0.2205
    200  NE        57.2830   63.9830   32.1030 N.pl3 308  ARG308     -0.0865
    201  CZ        58.3250   64.5840   32.6710 C.cat 308  ARG308      0.5346
    202  NH1       58.9970   63.9760   33.6350 N.pl3 308  ARG308      0.1354
    203  NH2       58.7050   65.7940   32.2670 N.pl3 308  ARG308      0.1354
    204  N         59.5180   60.1650   26.0340 N.3   310  ARG310     -0.1245
    205  CA        60.8870   60.6090   26.2160 C.3   310  ARG310      0.1563
    206  C         61.5050   60.9410   24.8800 C.2   310  ARG310      0.2260
    207  O         61.1340   60.3780   23.8530 O.2   310  ARG310     -0.2867
    208  CB        61.7190   59.5140   26.8830 C.3   310  ARG310      0.0307
    209  CG        61.2170   59.1000   28.2470 C.3   310  ARG310      0.0489
    210  CD        61.9850   57.9060   28.7340 C.3   310  ARG310      0.2205
    211  NE        61.5440   57.4720   30.0510 N.pl3 310  ARG310     -0.0865
    212  CZ        61.4810   56.1960   30.4120 C.cat 310  ARG310      0.5346
    213  NH1       61.8290   55.2490   29.5390 N.pl3 310  ARG310      0.1354
    214  NH2       61.0780   55.8680   31.6390 N.pl3 310  ARG310      0.1354
@<TRIPOS>BOND
     1   207   206    2
     2   206   205    1
     3   204   205    1
     4   205   208    1
     5   208   209    1
     6   138   139    1
     7   141   140    2
     8    13    14   ar
     9    13    11   ar
    10   142   139    1
    11   142   143    1
    12    14    12   ar
    13   167   165    1
    14   195   196    2
    15   195   194    1
    16   139   140    1
    17   209   210    1
    18   140   149   am
    19   143   144    1
    20   159   158    2
    21    11     8   ar
    22   144   145    1
    23   210   211    1
    24    12    10   ar
    25   166   164    1
    26   194   197    1
    27   194   193    1
    28   161   162    1
    29   161   164    1
    30   161   160    1
    31   165   164    1
    32   162   163    2
    33   149   150    1
    34   158   160   am
    35   158   157    1
    36   213   212    1
    37   147   146    1
    38   197   198    1
    39   150   153    1
    40   150   151    1
    41     8    10   ar
    42     8     6   ar
    43   156   151   am
    44   156   157    1
    45   145   146    2
    46    10     9   ar
    47   211   212    2
    48   168   169    1
    49   153   155    1
    50   153   154    1
    51   146   148    1
    52   212   214    1
    53   198   199    1
    54   151   152    2
    55   116   117   ar
    56   116   114   ar
    57    22    21    2
    58     6     5    1
    59     6     7   ar
    60   117   115   ar
    61   199   200    1
    62     9     7   ar
    63     5     2    1
    64   114   112   ar
    65   169   170    1
    66   115   113   ar
    67     1     2    1
    68    18    17    2
    69    26    24   ar
    70    23    24    1
    71    23    20    1
    72   112   113   ar
    73   112   111    1
    74    21    20    1
    75   200   201    2
    76   171   170    2
    77     2     3    1
    78   203   201    1
    79   170   172   am
    80   111   108    1
    81    24    25   ar
    82     4     3    2
    83   201   202    1
    84     3    15   am
    85    20    19    1
    86   189   188    2
    87   191   190    1
    88    47    46    2
    89    53    52    1
    90    53    54    1
    91    17    19   am
    92    17    16    1
    93   188   187    1
    94   172   173    1
    95    15    16    1
    96    46    52   am
    97    46    45    1
    98   177   176    1
    99    44    45    1
   100   110   109    2
   101   190   187    1
   102   190   192    1
   103    55    54    2
   104    45    48    1
   105   108   107    1
   106   108   109    1
   107    54    56   am
   108   173   176    1
   109   173   174    1
   110   187   186    1
   111   109   118   am
   112   176   178    1
   113   106   104    1
   114   186   181   am
   115   104   105    1
   116   104   103    1
   117    56    57    1
   118   174   179   am
   119   174   175    2
   120   179   180    1
   121    48    50    1
   122    48    49    1
   123    51    49    1
   124    59    58    2
   125    99   100    1
   126   118   119    1
   127   181   182    2
   128   181   180    1
   129   100   103    1
   130   100   101    1
   131   123   122    1
   132    58    57    1
   133    58    63   am
   134   180   183    1
   135    57    60    1
   136   119   122    1
   137   119   120    1
   138    43    42    2
   139    69    67    1
   140   183   184    1
   141   183   185    1
   142    63    64    1
   143    64    67    1
   144    64    65    1
   145   122   124    1
   146    94    93    2
   147    60    61    1
   148    60    62    1
   149   120   121    2
   150   120   125   am
   151   101   102    2
   152    42    41    1
   153    93    92    1
   154    67    68    1
   155    65    66    2
   156    41    40    1
   157    92    95    1
   158    92    91    1
   159   125   126    1
   160    40    37   am
   161    30    29    2
   162    95    96    1
   163    98    96   am
   164   126   129    1
   165   126   127    1
   166    37    36    1
   167    37    38    2
   168   129   131    1
   169   129   130    1
   170    96    97    2
   171    29    35   am
   172    29    28    1
   173    36    35    1
   174    36    39    1
   175   128   127    2
   176   127   132   am
   177    77    78    1
   178    77    76    1
   179    28    31    1
   180    28    27    1
   181    31    32    1
   182    34    32   am
   183    70    71    1
   184    75    76    1
   185    75    74    1
   186    32    33    2
   187   132   133    1
   188    74    71    1
   189    71    72    1
   190   137   136    1
   191   133   136    1
   192   133   134    1
   193    84    83    1
   194    84    86    1
   195    83    85    1
   196    83    80    1
   197    72    73    2
   198    87    88    1
   199    87    81   am
   200    88    89    1
   201   134   135    2
   202    79    80    1
   203    80    81    1
   204    81    82    2
   205    89    90    2
