@<TRIPOS>MOLECULE
tmp/1mfbB00.pdb
 121 122 0 0 0
SMALL
GASTEIGER

@<TRIPOS>ATOM
      1  N         16.7660   35.8230   13.5070 N.3    33  TRP33      -0.1241
      2  CA        17.6560   34.8260   14.0630 C.3    33  TRP33       0.1605
      3  C         17.0330   33.4610   13.8330 C.2    33  TRP33       0.2264
      4  O         15.8100   33.2850   13.7070 O.2    33  TRP33      -0.2867
      5  CB        17.8640   35.0110   15.5780 C.3    33  TRP33       0.0550
      6  CG        18.6000   36.2710   16.0250 C.ar   33  TRP33       0.0003
      7  CD1       17.9640   37.4890   16.0830 C.ar   33  TRP33       0.0946
      8  CD2       19.9130   36.3390   16.4110 C.ar   33  TRP33       0.0152
      9  NE1       18.8620   38.3350   16.5020 N.ar   33  TRP33      -0.2442
     10  CE2       20.0320   37.7020   16.7040 C.ar   33  TRP33       0.0810
     11  CE3       21.0130   35.4790   16.5590 C.ar   33  TRP33       0.0012
     12  CZ2       21.2360   38.2390   17.1460 C.ar   33  TRP33       0.0191
     13  CZ3       22.2280   36.0070   17.0050 C.ar   33  TRP33       0.0001
     14  CH2       22.3290   37.3750   17.2910 C.ar   33  TRP33       0.0015
     15  N         17.0920   29.9440   15.7730 N.3    35  HIS35      -0.1241
     16  CA        17.4930   29.3100   17.0180 C.3    35  HIS35       0.1621
     17  C         17.3100   27.8150   16.8800 C.2    35  HIS35       0.2264
     18  O         16.4890   27.3810   16.0550 O.2    35  HIS35      -0.2867
     19  CB        16.6420   29.8320   18.1840 C.3    35  HIS35       0.0745
     20  CG        16.8940   31.2860   18.5750 C.ar   35  HIS35       0.0817
     21  ND1       17.4820   31.5900   19.7180 N.ar   35  HIS35      -0.2268
     22  CD2       16.4690   32.3940   17.8940 C.ar   35  HIS35       0.1154
     23  CE1       17.4280   32.9060   19.7800 C.ar   35  HIS35       0.1986
     24  NE2       16.8290   33.3680   18.6930 N.ar   35  HIS35      -0.2212
     25  N         17.9140   25.0890   25.0060 N.3    47  TRP47      -0.1241
     26  CA        18.2910   25.9460   23.9130 C.3    47  TRP47       0.1605
     27  C         19.7370   25.5620   23.5500 C.2    47  TRP47       0.2264
     28  O         20.5880   25.4390   24.4360 O.2    47  TRP47      -0.2867
     29  CB        18.1610   27.3710   24.4070 C.3    47  TRP47       0.0550
     30  CG        18.6420   28.4380   23.4540 C.ar   47  TRP47       0.0003
     31  CD1       17.9140   28.8180   22.3490 C.ar   47  TRP47       0.0946
     32  CD2       19.7970   29.1570   23.6150 C.ar   47  TRP47       0.0152
     33  NE1       18.6090   29.8000   21.8160 N.ar   47  TRP47      -0.2442
     34  CE2       19.7320   30.0420   22.5240 C.ar   47  TRP47       0.0810
     35  CE3       20.8740   29.1930   24.5080 C.ar   47  TRP47       0.0012
     36  CZ2       20.7500   30.9860   22.3160 C.ar   47  TRP47       0.0191
     37  CZ3       21.8870   30.1420   24.2860 C.ar   47  TRP47       0.0001
     38  CH2       21.8260   31.0290   23.2040 C.ar   47  TRP47       0.0015
     39  N         21.8530   30.0710   18.5710 N.3    50  ALA50      -0.1245
     40  CA        21.1800   30.8670   17.5700 C.3    50  ALA50       0.1562
     41  C         22.1790   31.5220   16.6410 C.2    50  ALA50       0.2260
     42  O         23.2840   31.8490   17.1020 O.2    50  ALA50      -0.2867
     43  CB        20.4140   31.9750   18.2160 C.3    50  ALA50       0.0290
     44  N         22.5640   34.6600   13.5010 N.3    52  TYR52      -0.1241
     45  CA        22.0040   35.7990   12.8010 C.3    52  TYR52       0.1605
     46  C         22.5930   35.7380   11.3950 C.2    52  TYR52       0.2264
     47  O         23.7270   36.1740   11.1960 O.2    52  TYR52      -0.2867
     48  CB        22.4100   37.1130   13.4740 C.3    52  TYR52       0.0534
     49  CG        21.5710   38.2840   12.9970 C.ar   52  TYR52      -0.0201
     50  CD1       20.2020   38.2560   13.2180 C.ar   52  TYR52      -0.0009
     51  CD2       22.1480   39.3650   12.3310 C.ar   52  TYR52      -0.0009
     52  CE1       19.3890   39.2950   12.7790 C.ar   52  TYR52       0.0417
     53  CE2       21.3410   40.4180   11.8840 C.ar   52  TYR52       0.0417
     54  CZ        19.9590   40.3740   12.1120 C.ar   52  TYR52       0.1957
     55  OH        19.1310   41.4040   11.6910 O.3    52  TYR52      -0.2866
     56  N         24.9430   38.4840    9.3610 N.3    55  ASN55      -0.1240
     57  CA        26.3850   38.6290    9.5460 C.3    55  ASN55       0.1653
     58  C         27.0120   37.4650   10.3130 C.2    55  ASN55       0.2266
     59  O         28.1160   37.5320   10.8550 O.2    55  ASN55      -0.2867
     60  CB        26.6800   39.9660   10.2710 C.3    55  ASN55       0.1155
     61  CG        25.8850   40.2250   11.5410 C.2    55  ASN55       0.2627
     62  OD1       25.6780   39.3550   12.3840 O.2    55  ASN55      -0.2716
     63  ND2       25.3680   41.4330   11.7220 N.am   55  ASN55      -0.0877
     64  N         26.6240   36.2060   13.2040 N.3    57  ALA57      -0.1245
     65  CA        26.8360   36.2970   14.6590 C.3    57  ALA57       0.1562
     66  C         26.1490   35.0640   15.2550 C.2    57  ALA57       0.2260
     67  O         25.1450   34.5990   14.6850 O.2    57  ALA57      -0.2867
     68  CB        26.1610   37.5180   15.2820 C.3    57  ALA57       0.0290
     69  N         25.1280   32.7490   19.1370 N.3    59  PHE59      -0.1241
     70  CA        25.1600   32.7130   20.5960 C.3    59  PHE59       0.1605
     71  C         25.0650   31.2320   20.8610 C.2    59  PHE59       0.2264
     72  O         24.3290   30.5530   20.1320 O.2    59  PHE59      -0.2867
     73  CB        23.9690   33.4160   21.2390 C.3    59  PHE59       0.0534
     74  CG        24.1490   34.9260   21.3380 C.ar   59  PHE59      -0.0203
     75  CD1       23.7870   35.7630   20.2670 C.ar   59  PHE59      -0.0042
     76  CD2       24.6980   35.4960   22.4970 C.ar   59  PHE59      -0.0042
     77  CE1       23.9750   37.1550   20.3500 C.ar   59  PHE59      -0.0003
     78  CE2       24.8810   36.8910   22.5690 C.ar   59  PHE59      -0.0003
     79  CZ        24.5230   37.7260   21.4980 C.ar   59  PHE59      -0.0000
     80  N         13.7240   37.0650   16.9020 N.3   100  GLY100     -0.1210
     81  CA        13.8760   38.4630   16.6090 C.3   100  GLY100      0.1956
     82  C         14.2410   39.1290   17.9050 C.2   100  GLY100      0.2612
     83  O         14.7290   38.5000   18.8560 O.2   100  GLY100     -0.2717
     84  N         13.9400   40.4100   18.0030 N.am  101  HIS101     -0.1961
     85  CA        14.2790   41.1500   19.1980 C.3   101  HIS101      0.1787
     86  C         13.3380   40.7510   20.3250 C.2   101  HIS101      0.2621
     87  O         12.1240   40.9010   20.2590 O.2   101  HIS101     -0.2715
     88  CB        14.1750   42.6670   18.9840 C.3   101  HIS101      0.0785
     89  CG        14.4990   43.3950   20.2820 C.ar  101  HIS101      0.0821
     90  ND1       15.6660   43.4320   20.9130 N.ar  101  HIS101     -0.2267
     91  CD2       13.5720   44.0520   21.0550 C.ar  101  HIS101      0.1154
     92  CE1       15.4940   44.0630   22.0390 C.ar  101  HIS101      0.1986
     93  NE2       14.2330   44.4330   22.1190 N.ar  101  HIS101     -0.2212
     94  N         13.9170   40.1420   21.3360 N.am  102  GLY102     -0.1940
     95  CA        13.2100   39.8120   22.5530 C.3   102  GLY102      0.2014
     96  C         12.5420   38.4720   22.4420 C.2   102  GLY102      0.2639
     97  O         11.8170   38.1330   23.3560 O.2   102  GLY102     -0.2714
     98  N         12.7050   37.7000   21.3810 N.am  103  TYR103     -0.1959
     99  CA        12.1010   36.3850   21.3410 C.3   103  TYR103      0.1771
    100  C         12.8920   35.3930   20.5210 C.2   103  TYR103      0.2619
    101  O         13.6520   35.8220   19.6610 O.2   103  TYR103     -0.2715
    102  CB        10.6550   36.4470   20.7920 C.3   103  TYR103      0.0574
    103  CG        10.4700   36.8760   19.3590 C.ar  103  TYR103     -0.0198
    104  CD1       10.4140   38.2330   19.0130 C.ar  103  TYR103     -0.0009
    105  CD2       10.3910   35.8810   18.3960 C.ar  103  TYR103     -0.0009
    106  CE1       10.2840   38.5880   17.6660 C.ar  103  TYR103      0.0417
    107  CE2       10.2640   36.2360   17.0580 C.ar  103  TYR103      0.0417
    108  CZ        10.2090   37.5760   16.6940 C.ar  103  TYR103      0.1957
    109  OH        10.0600   37.8850   15.3530 O.3   103  TYR103     -0.2866
    110  N         12.7130   34.0980   20.7550 N.am  104  TYR104     -0.1974
    111  CA        13.4710   33.0960   20.0480 C.3   104  TYR104      0.1639
    112  C         12.6440   32.2750   19.0670 C.2   104  TYR104      0.2290
    113  O         13.2450   31.6010   18.2230 O.2   104  TYR104     -0.2864
    114  CB        14.1780   32.1000   21.0420 C.3   104  TYR104      0.0560
    115  CG        13.2330   31.1620   21.7660 C.ar  104  TYR104     -0.0198
    116  CD1       12.6360   31.5900   22.9600 C.ar  104  TYR104     -0.0009
    117  CD2       12.8740   29.9450   21.1900 C.ar  104  TYR104     -0.0009
    118  CE1       11.6600   30.8060   23.5620 C.ar  104  TYR104      0.0417
    119  CE2       11.8930   29.1580   21.7840 C.ar  104  TYR104      0.0417
    120  CZ        11.2900   29.6010   22.9660 C.ar  104  TYR104      0.1957
    121  OH        10.2900   28.8480   23.5520 O.3   104  TYR104     -0.2866
@<TRIPOS>BOND
     1    56    57    1
     2    57    60    1
     3    57    58    1
     4    60    61    1
     5    58    59    2
     6    47    46    2
     7    46    45    1
     8    61    63   am
     9    61    62    2
    10    55    54    1
    11    53    54   ar
    12    53    51   ar
    13    54    52   ar
    14    51    49   ar
    15    52    50   ar
    16    45    48    1
    17    45    44    1
    18    49    50   ar
    19    49    48    1
    20    64    65    1
    21     1     2    1
    22     4     3    2
    23     3     2    1
    24     2     5    1
    25    65    66    1
    26    65    68    1
    27    67    66    2
    28   109   108    1
    29     5     6    1
    30    15    16    1
    31     6     7   ar
    32     6     8   ar
    33    18    17    2
    34     7     9   ar
    35     8    11   ar
    36     8    10   ar
    37     9    10   ar
    38    11    13   ar
    39    81    80    1
    40    81    82    1
    41    41    42    2
    42    41    40    1
    43   108   107   ar
    44   108   106   ar
    45    10    12   ar
    46    17    16    1
    47    13    14   ar
    48    16    19    1
    49   107   105   ar
    50    12    14   ar
    51    40    43    1
    52    40    39    1
    53   106   104   ar
    54    22    20   ar
    55    22    24   ar
    56    82    84   am
    57    82    83    2
    58    84    85    1
    59    19    20    1
    60   113   112    2
    61   105   103   ar
    62    20    21   ar
    63    24    23   ar
    64    88    85    1
    65    88    89    1
    66   104   103   ar
    67   112   111    1
    68    69    70    1
    69    85    86    1
    70   103   102    1
    71   101   100    2
    72    21    23   ar
    73   111   110    1
    74   111   114    1
    75    72    71    2
    76    87    86    2
    77    75    77   ar
    78    75    74   ar
    79    89    90   ar
    80    89    91   ar
    81    86    94   am
    82    77    79   ar
    83   100   110   am
    84   100    99    1
    85    70    71    1
    86    70    73    1
    87   102    99    1
    88    90    92   ar
    89   114   115    1
    90    91    93   ar
    91   117   115   ar
    92   117   119   ar
    93    73    74    1
    94    94    95    1
    95    74    76   ar
    96    99    98    1
    97    98    96   am
    98    79    78   ar
    99   115   116   ar
   100   119   120   ar
   101    33    31   ar
   102    33    34   ar
   103    92    93   ar
   104    36    34   ar
   105    36    38   ar
   106    31    30   ar
   107    96    95    1
   108    96    97    2
   109    76    78   ar
   110    34    32   ar
   111   116   118   ar
   112   120   121    1
   113   120   118   ar
   114    38    37   ar
   115    30    32   ar
   116    30    29    1
   117    27    26    1
   118    27    28    2
   119    32    35   ar
   120    26    29    1
   121    26    25    1
   122    37    35   ar
