@<TRIPOS>MOLECULE
tmp/1mfcB00.pdb
 121 122 0 0 0
SMALL
GASTEIGER

@<TRIPOS>ATOM
      1  N         16.8080   35.7040   13.3890 N.3    33  TRP33      -0.1241
      2  CA        17.6470   34.6480   13.9470 C.3    33  TRP33       0.1605
      3  C         16.9860   33.3050   13.6900 C.2    33  TRP33       0.2264
      4  O         15.7590   33.1780   13.5540 O.2    33  TRP33      -0.2867
      5  CB        17.8280   34.7690   15.4550 C.3    33  TRP33       0.0550
      6  CG        18.5950   36.0000   15.8660 C.ar   33  TRP33       0.0003
      7  CD1       18.0150   37.2390   15.9160 C.ar   33  TRP33       0.0946
      8  CD2       19.9110   36.0070   16.2290 C.ar   33  TRP33       0.0152
      9  NE1       18.9690   38.0440   16.3180 N.ar   33  TRP33      -0.2442
     10  CE2       20.1190   37.3660   16.5110 C.ar   33  TRP33       0.0810
     11  CE3       20.9370   35.0670   16.3520 C.ar   33  TRP33       0.0012
     12  CZ2       21.3750   37.7930   16.9390 C.ar   33  TRP33       0.0191
     13  CZ3       22.1890   35.5030   16.7690 C.ar   33  TRP33       0.0001
     14  CH2       22.3960   36.8520   17.0570 C.ar   33  TRP33       0.0015
     15  N         17.0930   29.7430   15.5570 N.3    35  HIS35      -0.1241
     16  CA        17.4980   29.0700   16.7860 C.3    35  HIS35       0.1621
     17  C         17.2110   27.5780   16.6560 C.2    35  HIS35       0.2264
     18  O         16.3320   27.1480   15.9000 O.2    35  HIS35      -0.2867
     19  CB        16.7290   29.5690   17.9980 C.3    35  HIS35       0.0745
     20  CG        16.9470   31.0020   18.3940 C.ar   35  HIS35       0.0817
     21  ND1       17.5650   31.3190   19.5070 N.ar   35  HIS35      -0.2268
     22  CD2       16.4890   32.0950   17.7150 C.ar   35  HIS35       0.1154
     23  CE1       17.4970   32.6380   19.5400 C.ar   35  HIS35       0.1986
     24  NE2       16.8600   33.0900   18.4780 N.ar   35  HIS35      -0.2212
     25  N         17.7170   24.9090   24.7920 N.3    47  TRP47      -0.1241
     26  CA        18.1460   25.7380   23.6960 C.3    47  TRP47       0.1605
     27  C         19.5910   25.3490   23.3520 C.2    47  TRP47       0.2264
     28  O         20.4800   25.3170   24.2140 O.2    47  TRP47      -0.2867
     29  CB        18.0010   27.1660   24.1880 C.3    47  TRP47       0.0550
     30  CG        18.5750   28.2390   23.2970 C.ar   47  TRP47       0.0003
     31  CD1       17.8700   28.7040   22.2270 C.ar   47  TRP47       0.0946
     32  CD2       19.7920   28.8620   23.4710 C.ar   47  TRP47       0.0152
     33  NE1       18.6290   29.6420   21.7100 N.ar   47  TRP47      -0.2442
     34  CE2       19.7780   29.7850   22.4090 C.ar   47  TRP47       0.0810
     35  CE3       20.8870   28.8010   24.3390 C.ar   47  TRP47       0.0012
     36  CZ2       20.8660   30.6520   22.2060 C.ar   47  TRP47       0.0191
     37  CZ3       21.9650   29.6690   24.1260 C.ar   47  TRP47       0.0001
     38  CH2       21.9540   30.5890   23.0750 C.ar   47  TRP47       0.0015
     39  N         21.9060   29.8030   18.3440 N.3    50  ALA50      -0.1245
     40  CA        21.2150   30.6540   17.3930 C.3    50  ALA50       0.1562
     41  C         22.2210   31.2400   16.4190 C.2    50  ALA50       0.2260
     42  O         23.3800   31.4480   16.8070 O.2    50  ALA50      -0.2867
     43  CB        20.5660   31.8080   18.1030 C.3    50  ALA50       0.0290
     44  N         22.4840   34.3690   13.2330 N.3    52  TYR52      -0.1241
     45  CA        21.9010   35.5050   12.5340 C.3    52  TYR52       0.1605
     46  C         22.4880   35.4200   11.1380 C.2    52  TYR52       0.2264
     47  O         23.6570   35.7820   10.9760 O.2    52  TYR52      -0.2867
     48  CB        22.3270   36.8250   13.1710 C.3    52  TYR52       0.0534
     49  CG        21.5360   38.0480   12.7140 C.ar   52  TYR52      -0.0201
     50  CD1       20.1770   38.1340   13.0140 C.ar   52  TYR52      -0.0009
     51  CD2       22.1530   39.0930   12.0180 C.ar   52  TYR52      -0.0009
     52  CE1       19.4410   39.2530   12.6380 C.ar   52  TYR52       0.0417
     53  CE2       21.4170   40.2190   11.6390 C.ar   52  TYR52       0.0417
     54  CZ        20.0650   40.2860   11.9560 C.ar   52  TYR52       0.1957
     55  OH        19.3310   41.4000   11.6350 O.3    52  TYR52      -0.2866
     56  N         24.7170   38.4790    9.4260 N.3    55  ASN55      -0.1240
     57  CA        26.1270   38.7490    9.6960 C.3    55  ASN55       0.1653
     58  C         26.8290   37.5380   10.3050 C.2    55  ASN55       0.2266
     59  O         27.9810   37.6270   10.7430 O.2    55  ASN55      -0.2867
     60  CB        26.2850   39.9480   10.6560 C.3    55  ASN55       0.1155
     61  CG        25.5250   39.8350   11.9700 C.2    55  ASN55       0.2627
     62  OD1       25.2180   38.7500   12.4560 O.2    55  ASN55      -0.2716
     63  ND2       25.1010   40.9280   12.5710 N.am   55  ASN55      -0.0877
     64  N         26.3960   36.0580   13.1440 N.3    57  ALA57      -0.1245
     65  CA        26.6080   36.0640   14.5850 C.3    57  ALA57       0.1562
     66  C         25.9710   34.7650   15.0980 C.2    57  ALA57       0.2260
     67  O         24.8930   34.3570   14.6410 O.2    57  ALA57      -0.2867
     68  CB        25.8990   37.2280   15.2670 C.3    57  ALA57       0.0290
     69  N         25.2310   32.3110   18.7760 N.3    59  PHE59      -0.1241
     70  CA        25.2420   32.2770   20.2290 C.3    59  PHE59       0.1605
     71  C         25.1740   30.7790   20.4830 C.2    59  PHE59       0.2264
     72  O         24.5550   30.0720   19.6620 O.2    59  PHE59      -0.2867
     73  CB        24.0090   32.9810   20.8280 C.3    59  PHE59       0.0534
     74  CG        24.2340   34.4750   21.0470 C.ar   59  PHE59      -0.0203
     75  CD1       24.7470   34.9320   22.2730 C.ar   59  PHE59      -0.0042
     76  CD2       23.9020   35.4070   20.0470 C.ar   59  PHE59      -0.0042
     77  CE1       24.9470   36.3070   22.4710 C.ar   59  PHE59      -0.0003
     78  CE2       24.1060   36.7790   20.2520 C.ar   59  PHE59      -0.0003
     79  CZ        24.6180   37.2320   21.4710 C.ar   59  PHE59      -0.0000
     80  N         13.9520   36.8850   16.8840 N.3   100  GLY100     -0.1210
     81  CA        14.2170   38.2760   16.6310 C.3   100  GLY100      0.1956
     82  C         14.5430   38.9300   17.9560 C.2   100  GLY100      0.2612
     83  O         15.0060   38.2810   18.8910 O.2   100  GLY100     -0.2717
     84  N         14.2840   40.2200   18.1100 N.am  101  HIS101     -0.1961
     85  CA        14.5980   40.9170   19.3360 C.3   101  HIS101      0.1787
     86  C         13.6320   40.4950   20.4490 C.2   101  HIS101      0.2621
     87  O         12.4160   40.6250   20.3450 O.2   101  HIS101     -0.2715
     88  CB        14.5200   42.4430   19.1160 C.3   101  HIS101      0.0785
     89  CG        14.7790   43.1710   20.4280 C.ar  101  HIS101      0.0821
     90  ND1       15.9370   43.2420   21.0740 N.ar  101  HIS101     -0.2267
     91  CD2       13.8090   43.7820   21.1900 C.ar  101  HIS101      0.1154
     92  CE1       15.7090   43.8600   22.2110 C.ar  101  HIS101      0.1986
     93  NE2       14.4340   44.1780   22.2680 N.ar  101  HIS101     -0.2212
     94  N         14.1870   39.9840   21.5330 N.am  102  GLY102     -0.1940
     95  CA        13.4470   39.5270   22.6920 C.3   102  GLY102      0.2014
     96  C         12.7270   38.2130   22.4580 C.2   102  GLY102      0.2639
     97  O         11.9010   37.8750   23.2850 O.2   102  GLY102     -0.2714
     98  N         12.9140   37.4450   21.3870 N.am  103  TYR103     -0.1959
     99  CA        12.2100   36.1820   21.2720 C.3   103  TYR103      0.1771
    100  C         13.0150   35.2380   20.4130 C.2   103  TYR103      0.2619
    101  O         13.7490   35.7070   19.5420 O.2   103  TYR103     -0.2715
    102  CB        10.7930   36.3780   20.6680 C.3   103  TYR103      0.0574
    103  CG        10.6660   36.8060   19.2150 C.ar  103  TYR103     -0.0198
    104  CD1       10.6550   38.1570   18.8390 C.ar  103  TYR103     -0.0009
    105  CD2       10.5510   35.8200   18.2460 C.ar  103  TYR103     -0.0009
    106  CE1       10.5280   38.5140   17.4780 C.ar  103  TYR103      0.0417
    107  CE2       10.4200   36.1670   16.9100 C.ar  103  TYR103      0.0417
    108  CZ        10.4040   37.5020   16.5240 C.ar  103  TYR103      0.1957
    109  OH        10.2230   37.7880   15.1820 O.3   103  TYR103     -0.2866
    110  N         12.8680   33.9290   20.6790 N.am  104  TYR104     -0.1974
    111  CA        13.5800   32.9190   19.9230 C.3   104  TYR104      0.1639
    112  C         12.7210   32.1510   18.9140 C.2   104  TYR104      0.2290
    113  O         13.2690   31.5720   17.9730 O.2   104  TYR104     -0.2864
    114  CB        14.2570   31.9160   20.9160 C.3   104  TYR104      0.0560
    115  CG        13.3120   30.9650   21.6390 C.ar  104  TYR104     -0.0198
    116  CD1       12.9100   29.7640   21.0290 C.ar  104  TYR104     -0.0009
    117  CD2       12.7490   31.3760   22.8520 C.ar  104  TYR104     -0.0009
    118  CE1       11.9110   28.9970   21.6390 C.ar  104  TYR104      0.0417
    119  CE2       11.7560   30.6120   23.4580 C.ar  104  TYR104      0.0417
    120  CZ        11.3360   29.4320   22.8430 C.ar  104  TYR104      0.1957
    121  OH        10.2800   28.7430   23.4000 O.3   104  TYR104     -0.2866
@<TRIPOS>BOND
     1    56    57    1
     2    57    58    1
     3    57    60    1
     4    58    59    2
     5    60    61    1
     6    47    46    2
     7    46    45    1
     8    55    54    1
     9    53    54   ar
    10    53    51   ar
    11    54    52   ar
    12    61    62    2
    13    61    63   am
    14    51    49   ar
    15    45    48    1
    16    45    44    1
    17    52    50   ar
    18    49    50   ar
    19    49    48    1
    20    64    65    1
    21     1     2    1
    22     4     3    2
    23     3     2    1
    24     2     5    1
    25    65    66    1
    26    65    68    1
    27    67    66    2
    28   109   108    1
    29     5     6    1
    30    15    16    1
    31     6     7   ar
    32     6     8   ar
    33    18    17    2
    34     7     9   ar
    35     8    11   ar
    36     8    10   ar
    37     9    10   ar
    38    11    13   ar
    39    41    42    2
    40    41    40    1
    41    10    12   ar
    42   108   107   ar
    43   108   106   ar
    44    81    80    1
    45    81    82    1
    46    17    16    1
    47    13    14   ar
    48    16    19    1
    49   107   105   ar
    50    12    14   ar
    51    40    43    1
    52    40    39    1
    53   106   104   ar
    54    22    20   ar
    55    22    24   ar
    56    82    84   am
    57    82    83    2
    58   113   112    2
    59    19    20    1
    60    84    85    1
    61   105   103   ar
    62    20    21   ar
    63    24    23   ar
    64    69    70    1
    65   104   103   ar
    66   112   111    1
    67    88    85    1
    68    88    89    1
    69   103   102    1
    70    85    86    1
    71    21    23   ar
    72   101   100    2
    73    72    71    2
    74   111   110    1
    75   111   114    1
    76    76    78   ar
    77    76    74   ar
    78    70    71    1
    79    70    73    1
    80    78    79   ar
    81    87    86    2
    82   100   110   am
    83   100    99    1
    84    89    90   ar
    85    89    91   ar
    86    86    94   am
    87   102    99    1
    88    73    74    1
    89   114   115    1
    90   116   118   ar
    91   116   115   ar
    92    74    75   ar
    93    90    92   ar
    94    91    93   ar
    95    99    98    1
    96    98    96   am
    97    79    77   ar
    98    94    95    1
    99   118   120   ar
   100   115   117   ar
   101    33    31   ar
   102    33    34   ar
   103    36    34   ar
   104    36    38   ar
   105    92    93   ar
   106    31    30   ar
   107    75    77   ar
   108    34    32   ar
   109    96    95    1
   110    96    97    2
   111   120   121    1
   112   120   119   ar
   113   117   119   ar
   114    38    37   ar
   115    30    32   ar
   116    30    29    1
   117    27    26    1
   118    27    28    2
   119    32    35   ar
   120    26    29    1
   121    26    25    1
   122    37    35   ar
