@<TRIPOS>MOLECULE
tmp/1mfdB00.pdb
 121 122 0 0 0
SMALL
GASTEIGER

@<TRIPOS>ATOM
      1  N         16.8750   35.9750   13.4300 N.3    33  TRP33      -0.1241
      2  CA        17.7040   34.9580   14.0250 C.3    33  TRP33       0.1605
      3  C         17.0460   33.6030   13.7910 C.2    33  TRP33       0.2264
      4  O         15.8240   33.4590   13.6200 O.2    33  TRP33      -0.2867
      5  CB        17.8500   35.1810   15.5280 C.3    33  TRP33       0.0550
      6  CG        18.6130   36.4330   15.9200 C.ar   33  TRP33       0.0003
      7  CD1       18.0250   37.6770   15.9510 C.ar   33  TRP33       0.0946
      8  CD2       19.9230   36.4640   16.3240 C.ar   33  TRP33       0.0152
      9  NE1       18.9530   38.5000   16.3840 N.ar   33  TRP33      -0.2442
     10  CE2       20.0920   37.8220   16.6220 C.ar   33  TRP33       0.0810
     11  CE3       20.9650   35.5480   16.4920 C.ar   33  TRP33       0.0012
     12  CZ2       21.3120   38.2930   17.0790 C.ar   33  TRP33       0.0191
     13  CZ3       22.1850   36.0060   16.9550 C.ar   33  TRP33       0.0001
     14  CH2       22.3470   37.3680   17.2490 C.ar   33  TRP33       0.0015
     15  N         17.0620   30.0600   15.7690 N.3    35  HIS35      -0.1241
     16  CA        17.4580   29.4260   16.9960 C.3    35  HIS35       0.1621
     17  C         17.2270   27.9400   16.8080 C.2    35  HIS35       0.2264
     18  O         16.4120   27.5280   15.9610 O.2    35  HIS35      -0.2867
     19  CB        16.6220   29.9080   18.1730 C.3    35  HIS35       0.0745
     20  CG        16.8140   31.3520   18.5590 C.ar   35  HIS35       0.0817
     21  ND1       17.3980   31.6590   19.6990 N.ar   35  HIS35      -0.2268
     22  CD2       16.3990   32.4460   17.8590 C.ar   35  HIS35       0.1154
     23  CE1       17.3520   32.9780   19.7320 C.ar   35  HIS35       0.1986
     24  NE2       16.7610   33.4310   18.6390 N.ar   35  HIS35      -0.2212
     25  N         17.7860   25.2280   24.9870 N.3    47  TRP47      -0.1241
     26  CA        18.1910   26.0800   23.8940 C.3    47  TRP47       0.1605
     27  C         19.6320   25.7010   23.5100 C.2    47  TRP47       0.2264
     28  O         20.4870   25.6150   24.3980 O.2    47  TRP47      -0.2867
     29  CB        18.0890   27.5100   24.3880 C.3    47  TRP47       0.0550
     30  CG        18.5830   28.5720   23.4470 C.ar   47  TRP47       0.0003
     31  CD1       17.8630   28.9410   22.3460 C.ar   47  TRP47       0.0946
     32  CD2       19.7230   29.3090   23.6370 C.ar   47  TRP47       0.0152
     33  NE1       18.5410   29.9490   21.8350 N.ar   47  TRP47      -0.2442
     34  CE2       19.6550   30.2090   22.5630 C.ar   47  TRP47       0.0810
     35  CE3       20.7900   29.3530   24.5430 C.ar   47  TRP47       0.0012
     36  CZ2       20.6680   31.1710   22.3880 C.ar   47  TRP47       0.0191
     37  CZ3       21.7920   30.3170   24.3580 C.ar   47  TRP47       0.0001
     38  CH2       21.7340   31.2210   23.2940 C.ar   47  TRP47       0.0015
     39  N         21.8390   30.2670   18.6170 N.3    50  ALA50      -0.1245
     40  CA        21.1670   31.0090   17.5820 C.3    50  ALA50       0.1562
     41  C         22.2010   31.5600   16.6340 C.2    50  ALA50       0.2260
     42  O         23.3170   31.8660   17.0830 O.2    50  ALA50      -0.2867
     43  CB        20.4310   32.1980   18.1500 C.3    50  ALA50       0.0290
     44  N         22.4880   34.6450   13.4360 N.3    52  TYR52      -0.1241
     45  CA        21.9090   35.7530   12.7040 C.3    52  TYR52       0.1605
     46  C         22.5340   35.7140   11.3150 C.2    52  TYR52       0.2264
     47  O         23.6350   36.2510   11.1590 O.2    52  TYR52      -0.2867
     48  CB        22.2510   37.0740   13.3660 C.3    52  TYR52       0.0534
     49  CG        21.4170   38.2230   12.8450 C.ar   52  TYR52      -0.0201
     50  CD1       20.0330   38.2320   13.0170 C.ar   52  TYR52      -0.0009
     51  CD2       22.0340   39.2870   12.1970 C.ar   52  TYR52      -0.0009
     52  CE1       19.2640   39.2950   12.5370 C.ar   52  TYR52       0.0417
     53  CE2       21.2770   40.3570   11.7110 C.ar   52  TYR52       0.0417
     54  CZ        19.8910   40.3610   11.8850 C.ar   52  TYR52       0.1957
     55  OH        19.1420   41.4220   11.3960 O.3    52  TYR52      -0.2866
     56  N         24.6540   38.7050    9.3460 N.3    55  ASN55      -0.1240
     57  CA        26.0610   38.9930    9.6180 C.3    55  ASN55       0.1653
     58  C         26.7820   37.8210   10.2780 C.2    55  ASN55       0.2266
     59  O         27.8640   37.9730   10.8500 O.2    55  ASN55      -0.2867
     60  CB        26.1920   40.2470   10.5110 C.3    55  ASN55       0.1155
     61  CG        25.5440   40.2220   11.8910 C.2    55  ASN55       0.2627
     62  OD1       25.1850   41.2620   12.4460 O.2    55  ASN55      -0.2716
     63  ND2       25.2770   39.1040   12.5400 N.am   55  ASN55      -0.0877
     64  N         26.4090   36.2970   13.1230 N.3    57  ALA57      -0.1245
     65  CA        26.7150   36.3280   14.5560 C.3    57  ALA57       0.1562
     66  C         26.0840   35.0730   15.1710 C.2    57  ALA57       0.2260
     67  O         25.0970   34.5560   14.6150 O.2    57  ALA57      -0.2867
     68  CB        26.0930   37.5310   15.2610 C.3    57  ALA57       0.0290
     69  N         25.1750   32.8310   19.1040 N.3    59  PHE59      -0.1241
     70  CA        25.1820   32.7710   20.5680 C.3    59  PHE59       0.1605
     71  C         25.1130   31.2720   20.7780 C.2    59  PHE59       0.2264
     72  O         24.4540   30.5850   19.9740 O.2    59  PHE59      -0.2867
     73  CB        23.9560   33.3930   21.2260 C.3    59  PHE59       0.0534
     74  CG        24.0170   34.9060   21.2680 C.ar   59  PHE59      -0.0203
     75  CD1       23.6300   35.6690   20.1520 C.ar   59  PHE59      -0.0042
     76  CD2       24.4990   35.5410   22.4130 C.ar   59  PHE59      -0.0042
     77  CE1       23.7300   37.0720   20.1810 C.ar   59  PHE59      -0.0003
     78  CE2       24.5950   36.9420   22.4290 C.ar   59  PHE59      -0.0003
     79  CZ        24.2140   37.7080   21.3210 C.ar   59  PHE59      -0.0000
     80  N         13.7120   37.2120   16.8470 N.3   100  GLY100     -0.1210
     81  CA        13.9110   38.6080   16.5430 C.3   100  GLY100      0.1956
     82  C         14.1830   39.2860   17.8550 C.2   100  GLY100      0.2612
     83  O         14.6990   38.6730   18.7910 O.2   100  GLY100     -0.2717
     84  N         13.8230   40.5490   18.0290 N.am  101  HIS101     -0.1961
     85  CA        14.1440   41.2400   19.2610 C.3   101  HIS101      0.1787
     86  C         13.2350   40.7550   20.3770 C.2   101  HIS101      0.2621
     87  O         12.0150   40.6700   20.2450 O.2   101  HIS101     -0.2715
     88  CB        13.9890   42.7600   19.0940 C.3   101  HIS101      0.0785
     89  CG        14.3550   43.5200   20.3600 C.ar  101  HIS101      0.0821
     90  ND1       15.6100   43.5910   20.7380 N.ar  101  HIS101     -0.2267
     91  CD2       13.4890   44.0200   21.2850 C.ar  101  HIS101      0.1154
     92  CE1       15.5370   44.1430   21.9420 C.ar  101  HIS101      0.1986
     93  NE2       14.2820   44.3920   22.2500 N.ar  101  HIS101     -0.2212
     94  N         13.8510   40.3990   21.4770 N.am  102  GLY102     -0.1940
     95  CA        13.1620   39.9330   22.6330 C.3   102  GLY102      0.2014
     96  C         12.5300   38.5870   22.4210 C.2   102  GLY102      0.2639
     97  O         11.7740   38.1990   23.3020 O.2   102  GLY102     -0.2714
     98  N         12.7070   37.8340   21.3450 N.am  103  TYR103     -0.1959
     99  CA        12.0510   36.5420   21.3120 C.3   103  TYR103      0.1771
    100  C         12.8280   35.5600   20.4880 C.2   103  TYR103      0.2619
    101  O         13.5390   35.9970   19.5970 O.2   103  TYR103     -0.2715
    102  CB        10.6060   36.6950   20.7720 C.3   103  TYR103      0.0574
    103  CG        10.4440   37.0840   19.3270 C.ar  103  TYR103     -0.0198
    104  CD1       10.4470   38.4130   18.9290 C.ar  103  TYR103     -0.0009
    105  CD2       10.3250   36.0580   18.4080 C.ar  103  TYR103     -0.0009
    106  CE1       10.3390   38.7100   17.5630 C.ar  103  TYR103      0.0417
    107  CE2       10.2210   36.3510   17.0580 C.ar  103  TYR103      0.0417
    108  CZ        10.2220   37.6740   16.6350 C.ar  103  TYR103      0.1957
    109  OH        10.0820   37.9270   15.2780 O.3   103  TYR103     -0.2866
    110  N         12.6980   34.2660   20.7660 N.am  104  TYR104     -0.1974
    111  CA        13.4120   33.2560   20.0220 C.3   104  TYR104      0.1639
    112  C         12.5580   32.4580   19.0260 C.2   104  TYR104      0.2290
    113  O         13.1400   31.7260   18.2150 O.2   104  TYR104     -0.2864
    114  CB        14.0850   32.2290   20.9870 C.3   104  TYR104      0.0560
    115  CG        13.1040   31.2870   21.7000 C.ar  104  TYR104     -0.0198
    116  CD1       12.5140   31.6960   22.9100 C.ar  104  TYR104     -0.0009
    117  CD2       12.7330   30.0740   21.1130 C.ar  104  TYR104     -0.0009
    118  CE1       11.5470   30.9170   23.5370 C.ar  104  TYR104      0.0417
    119  CE2       11.7520   29.2880   21.7310 C.ar  104  TYR104      0.0417
    120  CZ        11.1710   29.7200   22.9380 C.ar  104  TYR104      0.1957
    121  OH        10.2050   28.9600   23.5600 O.3   104  TYR104     -0.2866
@<TRIPOS>BOND
     1    56    57    1
     2    57    58    1
     3    57    60    1
     4    58    59    2
     5    60    61    1
     6    47    46    2
     7    46    45    1
     8    55    54    1
     9    53    54   ar
    10    53    51   ar
    11    54    52   ar
    12    61    62    2
    13    61    63   am
    14    51    49   ar
    15    52    50   ar
    16    45    48    1
    17    45    44    1
    18    49    50   ar
    19    49    48    1
    20    64    65    1
    21     1     2    1
    22     4     3    2
    23     3     2    1
    24     2     5    1
    25    65    66    1
    26    65    68    1
    27    67    66    2
    28   109   108    1
    29     5     6    1
    30    15    16    1
    31     6     7   ar
    32     6     8   ar
    33     7     9   ar
    34    18    17    2
    35     8    11   ar
    36     8    10   ar
    37     9    10   ar
    38    11    13   ar
    39    81    80    1
    40    81    82    1
    41    10    12   ar
    42    41    42    2
    43    41    40    1
    44   108   107   ar
    45   108   106   ar
    46    17    16    1
    47    13    14   ar
    48    16    19    1
    49   107   105   ar
    50    12    14   ar
    51   106   104   ar
    52    40    43    1
    53    40    39    1
    54    82    84   am
    55    82    83    2
    56    22    20   ar
    57    22    24   ar
    58    84    85    1
    59    19    20    1
    60   113   112    2
    61   105   103   ar
    62    20    21   ar
    63    24    23   ar
    64   104   103   ar
    65   112   111    1
    66    88    85    1
    67    88    89    1
    68    69    70    1
    69    85    86    1
    70   103   102    1
    71   101   100    2
    72    21    23   ar
    73    72    71    2
    74   111   110    1
    75   111   114    1
    76    75    77   ar
    77    75    74   ar
    78    77    79   ar
    79    87    86    2
    80    89    90   ar
    81    89    91   ar
    82    86    94   am
    83   100   110   am
    84   100    99    1
    85    70    71    1
    86    70    73    1
    87    90    92   ar
    88   102    99    1
    89   114   115    1
    90   117   115   ar
    91   117   119   ar
    92    73    74    1
    93    74    76   ar
    94    91    93   ar
    95    99    98    1
    96    79    78   ar
    97    98    96   am
    98    94    95    1
    99   115   116   ar
   100   119   120   ar
   101    33    31   ar
   102    33    34   ar
   103    92    93   ar
   104    31    30   ar
   105    36    34   ar
   106    36    38   ar
   107    76    78   ar
   108    96    95    1
   109    96    97    2
   110    34    32   ar
   111   116   118   ar
   112   120   118   ar
   113   120   121    1
   114    38    37   ar
   115    30    32   ar
   116    30    29    1
   117    27    26    1
   118    27    28    2
   119    32    35   ar
   120    26    29    1
   121    26    25    1
   122    37    35   ar
