@<TRIPOS>MOLECULE
tmp/1mfgA00.pdb
 149 144 0 0 0
SMALL
GASTEIGER

@<TRIPOS>ATOM
      1  N          0.7290   16.9000   26.6690 N.3    11  LYS11      -0.1245
      2  CA         0.6780   16.9500   25.2090 C.3    11  LYS11       0.1561
      3  C          0.3880   18.3360   24.6610 C.2    11  LYS11       0.2260
      4  O         -0.4350   19.0600   25.1760 O.2    11  LYS11      -0.2867
      5  CB        -0.3630   15.9410   24.7060 C.3    11  LYS11       0.0271
      6  CG         0.1010   14.4910   24.9160 C.3    11  LYS11       0.0035
      7  CD        -0.8410   13.4670   24.2680 C.3    11  LYS11       0.0206
      8  CE        -0.3040   12.9300   22.9840 C.3    11  LYS11       0.1093
      9  NZ        -1.1320   11.8990   22.3610 N.3    11  LYS11      -0.1314
     10  N          1.7410   17.0850   20.8840 N.3    14  GLU14      -0.1231
     11  CA         2.5610   15.8750   20.9890 C.3    14  GLU14       0.1699
     12  C          3.2140   15.8130   22.3680 C.2    14  GLU14       0.2592
     13  O          3.2370   16.7890   23.1460 O.2    14  GLU14      -0.2718
     14  CB         3.6380   15.8260   19.8990 C.3    14  GLU14       0.0402
     15  CG         3.0150   15.7670   18.4920 C.3    14  GLU14       0.1161
     16  CD         3.9790   15.8420   17.3440 C.2    14  GLU14       0.3649
     17  OE1        5.0550   16.4700   17.5010 O.co2  14  GLU14      -0.2457
     18  OE2        3.7000   15.2910   16.2570 O.co2  14  GLU14      -0.2457
     19  N          3.7510   14.6680   22.7030 N.am   15  LEU15      -0.1966
     20  CA         4.5590   14.4490   23.9120 C.3    15  LEU15       0.1728
     21  C          5.9550   15.0030   23.7950 C.2    15  LEU15       0.2617
     22  O          6.5810   15.2800   24.8420 O.2    15  LEU15      -0.2715
     23  CB         4.5610   12.9590   24.2510 C.3    15  LEU15       0.0311
     24  CG         3.1920   12.3620   24.6240 C.3    15  LEU15       0.0022
     25  CD1        3.1700   10.8610   24.4460 C.3    15  LEU15       0.0001
     26  CD2        2.8690   12.7500   26.0380 C.3    15  LEU15       0.0001
     27  N          6.4940   15.1270   22.6060 N.am   16  GLY16      -0.1940
     28  CA         7.8320   15.6450   22.4200 C.3    16  GLY16       0.2014
     29  C          8.9220   14.6430   22.6880 C.2    16  GLY16       0.2639
     30  O         10.0470   15.0310   23.0900 O.2    16  GLY16      -0.2714
     31  N          8.7100   13.3630   22.4590 N.am   17  PHE17      -0.1959
     32  CA         9.7780   12.3880   22.5230 C.3    17  PHE17       0.1771
     33  C          9.4870   11.3150   21.4970 C.2    17  PHE17       0.2620
     34  O          8.3820   11.2030   21.0050 O.2    17  PHE17      -0.2715
     35  CB        10.0000   11.8290   23.9270 C.3    17  PHE17       0.0574
     36  CG         8.8490   11.0310   24.4950 C.ar   17  PHE17      -0.0200
     37  CD1        7.8840   11.6270   25.3020 C.ar   17  PHE17      -0.0042
     38  CD2        8.7180    9.6730   24.2790 C.ar   17  PHE17      -0.0042
     39  CE1        6.8720   10.8960   25.8960 C.ar   17  PHE17      -0.0003
     40  CE2        7.6900    8.9380   24.8070 C.ar   17  PHE17      -0.0003
     41  CZ         6.7610    9.5420   25.6180 C.ar   17  PHE17      -0.0000
     42  N         10.5240   10.5210   21.1820 N.am   18  SER18      -0.1936
     43  CA        10.4280    9.4270   20.2390 C.3    18  SER18       0.2055
     44  C         10.6680    8.1160   20.9970 C.2    18  SER18       0.2643
     45  O         11.3490    8.0900   22.0110 O.2    18  SER18      -0.2714
     46  CB        11.4030    9.5280   19.0600 C.3    18  SER18       0.2130
     47  OG        11.1030   10.7780   18.4210 O.3    18  SER18      -0.2179
     48  N         10.1110    7.0370   20.4550 N.am   19  ILE19      -0.1963
     49  CA        10.2490    5.7100   20.9980 C.3    19  ILE19       0.1727
     50  C         10.6850    4.7220   19.9460 C.2    19  ILE19       0.2616
     51  O         10.4940    4.9030   18.7500 O.2    19  ILE19      -0.2715
     52  CB         8.9420    5.2170   21.6530 C.3    19  ILE19       0.0290
     53  CG1        7.7620    5.0920   20.6900 C.3    19  ILE19       0.0022
     54  CG2        8.5970    6.0660   22.8590 C.3    19  ILE19       0.0023
     55  CD1        6.5860    4.3080   21.2170 C.3    19  ILE19       0.0001
     56  N         11.2120    3.5920   20.4340 N.am   20  SER20      -0.1950
     57  CA        11.5020    2.4270   19.6220 C.3    20  SER20       0.1924
     58  C         11.0960    1.2000   20.4580 C.2    20  SER20       0.2314
     59  O         10.9750    1.2810   21.6520 O.2    20  SER20      -0.2863
     60  CB        12.9670    2.2890   19.1780 C.3    20  SER20       0.2116
     61  OG        13.7840    2.0540   20.2940 O.3    20  SER20      -0.2180
     62  N         11.4510   -3.6710   15.9250 N.3    26  ARG26      -0.1231
     63  CA        12.8070   -3.8750   15.3960 C.3    26  ARG26       0.1694
     64  C         13.8520   -3.5480   16.4170 C.2    26  ARG26       0.2593
     65  O         14.9870   -3.2720   16.0980 O.2    26  ARG26      -0.2718
     66  CB        12.9470   -3.0420   14.1080 C.3    26  ARG26       0.0321
     67  CG        12.0050   -3.4910   12.9940 C.3    26  ARG26       0.0489
     68  CD        12.6490   -4.6910   12.2900 C.3    26  ARG26       0.2205
     69  NE        14.0700   -4.3870   12.1160 N.pl3  26  ARG26      -0.0865
     70  CZ        14.4760   -3.5060   11.2020 C.cat  26  ARG26       0.5346
     71  NH1       13.6100   -2.8830   10.4180 N.pl3  26  ARG26       0.1354
     72  NH2       15.7670   -3.2970   11.1160 N.pl3  26  ARG26       0.1354
     73  N         13.4860   -3.5300   17.7090 N.am   27  GLY27      -0.1942
     74  CA        14.4720   -3.3370   18.7490 C.3    27  GLY27       0.2014
     75  C         14.6950   -1.9250   19.1780 C.2    27  GLY27       0.2639
     76  O         13.8450   -1.0360   18.9870 O.2    27  GLY27      -0.2714
     77  N         15.8410   -1.6950   19.7950 N.am   28  ASN28      -0.1958
     78  CA        16.1810   -0.4500   20.4340 C.3    28  ASN28       0.1804
     79  C         17.6820   -0.4020   20.6050 C.2    28  ASN28       0.2463
     80  O         18.3770   -1.4160   20.5910 O.2    28  ASN28      -0.2730
     81  CB        15.4380   -0.3170   21.7930 C.3    28  ASN28       0.1195
     82  CG        16.0570   -1.2240   22.8250 C.2    28  ASN28       0.2630
     83  OD1       16.9940   -0.8370   23.5010 O.2    28  ASN28      -0.2716
     84  ND2       15.5350   -2.4440   22.8880 N.am   28  ASN28      -0.0877
     85  N         18.2640    0.7810   20.8140 N.am   29  PRO29      -0.2727
     86  CA        19.7430    0.8530   20.9770 C.3    29  PRO29       0.1402
     87  C         20.2560    0.6550   22.3870 C.2    29  PRO29       0.2269
     88  O         21.5010    0.6490   22.5700 O.2    29  PRO29      -0.2865
     89  CB        19.9940    2.2690   20.4700 C.3    29  PRO29       0.0296
     90  CG        18.8210    3.0410   20.9610 C.3    29  PRO29       0.0237
     91  CD        17.6470    2.0860   20.8070 C.3    29  PRO29       0.0939
     92  N         19.4470   -4.3950   23.5470 N.3    32  PRO32      -0.2168
     93  CA        18.9560   -4.8750   22.2470 C.3    32  PRO32       0.1057
     94  C         18.1440   -6.1560   22.2380 C.3    32  PRO32       0.1993
     95  O         17.3570   -6.2710   21.2720 O.3    32  PRO32      -0.2189
     96  CB        20.2460   -5.1650   21.4930 C.3    32  PRO32       0.0215
     97  CG        21.3360   -5.1900   22.5040 C.3    32  PRO32       0.0203
     98  CD        20.9150   -4.3190   23.6400 C.3    32  PRO32       0.0888
     99  N         13.9120    7.1660   22.8200 N.3    40  THR40      -0.1203
    100  CA        15.1490    7.2330   22.0480 C.3    40  THR40       0.1994
    101  C         15.6200    8.6530   21.9120 C.2    40  THR40       0.2617
    102  O         16.8210    8.8330   21.7460 O.2    40  THR40      -0.2717
    103  CB        14.9710    6.6210   20.6420 C.3    40  THR40       0.1784
    104  OG1       13.8360    7.2500   20.0640 O.3    40  THR40      -0.2211
    105  CG2       14.7870    5.1290   20.7400 C.3    40  THR40       0.0376
    106  N         14.7800    9.6500   22.0000 N.am   41  ARG41      -0.1979
    107  CA        15.1170   11.0380   21.8020 C.3    41  ARG41       0.1597
    108  C         14.0900   11.9080   22.4990 C.2    41  ARG41       0.2287
    109  O         12.8960   11.5500   22.5130 O.2    41  ARG41      -0.2864
    110  CB        15.1990   11.3860   20.3190 C.3    41  ARG41       0.0334
    111  CG        15.7110   12.7850   20.0910 C.3    41  ARG41       0.0492
    112  CD        16.7570   12.8960   19.0390 C.3    41  ARG41       0.2205
    113  NE        17.5290   14.1470   19.1060 N.pl3  41  ARG41      -0.0865
    114  CZ        18.7660   14.2700   19.5100 C.cat  41  ARG41       0.5346
    115  NH1       19.5350   13.2790   19.9390 N.pl3  41  ARG41       0.1354
    116  NH2       19.2780   15.5100   19.4760 N.pl3  41  ARG41       0.1354
    117  N         12.8430   15.9220   22.7220 N.3    43  GLN43      -0.1245
    118  CA        12.9250   17.2770   22.1500 C.3    43  GLN43       0.1566
    119  C         13.3560   18.2770   23.2380 C.2    43  GLN43       0.2260
    120  O         12.6690   18.3180   24.2580 O.2    43  GLN43      -0.2867
    121  CB        11.6210   17.7160   21.5350 C.3    43  GLN43       0.0367
    122  CG        11.0770   17.0080   20.3340 C.3    43  GLN43       0.0905
    123  CD         9.6760   17.4680   19.9520 C.2    43  GLN43       0.2608
    124  OE1        9.0030   18.2770   20.6040 O.2    43  GLN43      -0.2717
    125  NE2        9.1680   16.9760   18.8250 N.am   43  GLN43      -0.0878
    126  N          2.4890    2.6490   20.0630 N.3    75  VAL75      -0.1245
    127  CA         2.4570    3.9030   19.3110 C.3    75  VAL75       0.1561
    128  C          1.0510    4.4600   19.2970 C.2    75  VAL75       0.2260
    129  O          0.8220    5.6220   19.6150 O.2    75  VAL75      -0.2867
    130  CB         3.0230    3.7470   17.8940 C.3    75  VAL75       0.0252
    131  CG1        2.8290    5.0410   17.0860 C.3    75  VAL75       0.0019
    132  CG2        4.4970    3.4040   17.9270 C.3    75  VAL75       0.0019
    133  N         -0.0860    5.8710   22.8270 N.3    78  LEU78      -0.1231
    134  CA         0.5320    7.1490   23.1510 C.3    78  LEU78       0.1693
    135  C         -0.0280    8.2500   22.2810 C.2    78  LEU78       0.2591
    136  O         -0.2510    9.3390   22.7910 O.2    78  LEU78      -0.2718
    137  CB         2.0620    7.0780   23.0090 C.3    78  LEU78       0.0284
    138  CG         2.7580    6.2020   24.0640 C.3    78  LEU78       0.0019
    139  CD1        4.2130    6.0910   23.7070 C.3    78  LEU78       0.0001
    140  CD2        2.6160    6.7910   25.4430 C.3    78  LEU78       0.0001
    141  N         -0.3390    7.9980   21.0220 N.am   79  LYS79      -0.1980
    142  CA        -0.8920    8.9960   20.1500 C.3    79  LYS79       0.1596
    143  C         -2.3510    9.2810   20.4640 C.2    79  LYS79       0.2287
    144  O         -2.8030   10.3790   20.2810 O.2    79  LYS79      -0.2864
    145  CB        -0.7490    8.5840   18.6810 C.3    79  LYS79       0.0298
    146  CG         0.6880    8.6230   18.1730 C.3    79  LYS79       0.0038
    147  CD         0.7930    8.4350   16.7070 C.3    79  LYS79       0.0206
    148  CE         2.2010    8.8080   16.2440 C.3    79  LYS79       0.1093
    149  NZ         2.1970    8.8750   14.7590 N.3    79  LYS79      -0.1314
@<TRIPOS>BOND
     1    71    70    1
     2    72    70    1
     3    70    69    2
     4    69    68    1
     5    68    67    1
     6    67    66    1
     7    66    63    1
     8   149   148    1
     9    63    62    1
    10    63    64    1
    11    65    64    2
    12   148   147    1
    13    18    16   ar
    14    64    73   am
    15   147   146    1
    16   131   130    1
    17    16    17   ar
    18    16    15    1
    19    73    74    1
    20   130   132    1
    21   130   127    1
    22   146   145    1
    23    47    46    1
    24    15    14    1
    25   145   142    1
    26    74    75    1
    27    51    50    2
    28   125   123   am
    29    76    75    2
    30   112   113    1
    31   112   111    1
    32    46    43    1
    33   113   114    2
    34    75    77   am
    35    60    57    1
    36    60    61    1
    37   128   127    1
    38   128   129    2
    39   127   126    1
    40   116   114    1
    41   114   115    1
    42    57    56    1
    43    57    58    1
    44    77    78    1
    45    14    11    1
    46    50    56   am
    47    50    49    1
    48   123   122    1
    49   123   124    2
    50   104   103    1
    51   111   110    1
    52   142   143    1
    53   142   141    1
    54    43    44    1
    55    43    42    1
    56   144   143    2
    57   110   107    1
    58   122   121    1
    59    78    79    1
    60    78    81    1
    61    48    44   am
    62    48    49    1
    63    58    59    2
    64    89    90    1
    65    89    86    1
    66    80    79    2
    67    79    85   am
    68   103   105    1
    69   103   100    1
    70    53    55    1
    71    53    52    1
    72    91    85    1
    73    91    90    1
    74    85    86    1
    75    10    11    1
    76    86    87    1
    77    11    12    1
    78    44    45    2
    79    49    52    1
    80    34    33    2
    81   141   135   am
    82    42    33   am
    83    95    94    1
    84    96    93    1
    85    96    97    1
    86    33    32    1
    87   121   118    1
    88    52    54    1
    89   102   101    2
    90    81    82    1
    91   107   106    1
    92   107   108    1
    93   101   106   am
    94   101   100    1
    95   100    99    1
    96   118   117    1
    97   118   119    1
    98    94    93    1
    99    93    92    1
   100   135   136    2
   101   135   134    1
   102     9     8    1
   103    12    19   am
   104    12    13    2
   105    87    88    2
   106    28    27    1
   107    28    29    1
   108    31    32    1
   109    31    29   am
   110   108   109    2
   111    97    98    1
   112    32    35    1
   113    27    21   am
   114    29    30    2
   115    19    20    1
   116    82    84   am
   117    82    83    2
   118   133   134    1
   119     8     7    1
   120   137   134    1
   121   137   138    1
   122   119   120    2
   123    92    98    1
   124   139   138    1
   125    21    20    1
   126    21    22    2
   127    20    23    1
   128    35    36    1
   129   138   140    1
   130    23    24    1
   131     7     6    1
   132    38    36   ar
   133    38    40   ar
   134    25    24    1
   135    36    37   ar
   136    24    26    1
   137     3     4    2
   138     3     2    1
   139     5     6    1
   140     5     2    1
   141    40    41   ar
   142     2     1    1
   143    37    39   ar
   144    41    39   ar
