@<TRIPOS>MOLECULE
tmp/1mfiB00.pdb
 86 83 0 0 0
SMALL
GASTEIGER

@<TRIPOS>ATOM
      1  N         -3.7330   12.4210   -6.2920 N.3     1  PRO1       -0.2102
      2  CA        -2.8950   13.5840   -5.8960 C.3     1  PRO1        0.1504
      3  C         -3.3380   14.9330   -6.4860 C.2     1  PRO1        0.2575
      4  O         -4.0780   14.9970   -7.4670 O.2     1  PRO1       -0.2718
      5  CB        -1.4560   13.3250   -6.3420 C.3     1  PRO1        0.0282
      6  CG        -1.5800   12.0560   -7.2510 C.3     1  PRO1        0.0208
      7  CD        -3.0460   11.5720   -7.2880 C.3     1  PRO1        0.0893
      8  N         -2.8850   16.0110   -5.8640 N.am    2  MET2       -0.1980
      9  CA        -3.1620   17.3140   -6.4000 C.3     2  MET2        0.1605
     10  C         -1.8750   18.1070   -6.3990 C.2     2  MET2        0.2287
     11  O         -1.0710   18.0290   -5.4530 O.2     2  MET2       -0.2864
     12  CB        -4.2040   18.0220   -5.6030 C.3     2  MET2        0.0413
     13  CG        -4.0900   17.8690   -4.0990 C.3     2  MET2        0.0598
     14  SD        -5.3410   18.8210   -3.2660 S.3     2  MET2       -0.1393
     15  CE        -5.0060   20.5520   -3.4800 C.3     2  MET2        0.0692
     16  N          0.2570    7.1060   -9.9470 N.3    32  LYS32      -0.1245
     17  CA        -1.1810    7.2510   -9.7580 C.3    32  LYS32       0.1561
     18  C         -1.8880    7.4680  -11.0940 C.2    32  LYS32       0.2260
     19  O         -1.3440    8.0990  -11.9810 O.2    32  LYS32      -0.2867
     20  CB        -1.4680    8.4270   -8.8230 C.3    32  LYS32       0.0271
     21  CG        -0.8170    8.2800   -7.4780 C.3    32  LYS32       0.0035
     22  CD        -1.7960    7.7510   -6.4620 C.3    32  LYS32       0.0206
     23  CE        -1.2730    8.0170   -5.0720 C.3    32  LYS32       0.1093
     24  NZ        -2.0750    7.2380   -4.1050 N.3    32  LYS32      -0.1314
     25  N         -7.1420   10.4820  -11.1310 N.3    36  TYR36      -0.1241
     26  CA        -7.1130   10.9890   -9.7500 C.3    36  TYR36       0.1605
     27  C         -6.2160   12.1860   -9.5680 C.2    36  TYR36       0.2264
     28  O         -5.9690   12.6050   -8.4370 O.2    36  TYR36      -0.2867
     29  CB        -6.6000    9.8870   -8.7990 C.3    36  TYR36       0.0534
     30  CG        -7.5770    8.7480   -8.6260 C.ar   36  TYR36      -0.0201
     31  CD1       -8.6750    8.8960   -7.7870 C.ar   36  TYR36      -0.0009
     32  CD2       -7.4970    7.6000   -9.4270 C.ar   36  TYR36      -0.0009
     33  CE1       -9.6680    7.9710   -7.7570 C.ar   36  TYR36       0.0417
     34  CE2       -8.4990    6.6520   -9.4090 C.ar   36  TYR36       0.0417
     35  CZ        -9.5870    6.8470   -8.5730 C.ar   36  TYR36       0.1957
     36  OH       -10.6220    5.9370   -8.5480 O.3    36  TYR36      -0.2866
     37  N          0.2260   17.1250   -2.9970 N.3    62  HIS62      -0.1226
     38  CA        -0.4270   16.3820   -1.9280 C.3    62  HIS62       0.1752
     39  C         -0.7080   15.0410   -2.5480 C.2    62  HIS62       0.2597
     40  O         -1.1550   14.9690   -3.6950 O.2    62  HIS62      -0.2718
     41  CB        -1.7660   17.0200   -1.5730 C.3    62  HIS62       0.0759
     42  CG        -1.6500   18.3570   -0.8830 C.ar   62  HIS62       0.0818
     43  ND1       -1.3530   19.5210   -1.5640 N.ar   62  HIS62      -0.2268
     44  CD2       -1.7520   18.6800    0.4170 C.ar   62  HIS62       0.1154
     45  CE1       -1.2800   20.5130   -0.6940 C.ar   62  HIS62       0.1986
     46  NE2       -1.5150   20.0440    0.5090 N.ar   62  HIS62      -0.2212
     47  N         -0.4620   13.9800   -1.7970 N.am   63  SER63      -0.1938
     48  CA        -0.7100   12.6200   -2.2840 C.3    63  SER63       0.2055
     49  C         -1.0300   11.7180   -1.0840 C.2    63  SER63       0.2642
     50  O         -0.6840   12.0340    0.0480 O.2    63  SER63      -0.2714
     51  CB         0.5450   12.1080   -3.0230 C.3    63  SER63       0.2130
     52  OG         0.4090   10.7680   -3.4450 O.3    63  SER63      -0.2179
     53  N         -1.7640   10.6460   -1.3060 N.am   64  ILE64      -0.1977
     54  CA        -1.9940    9.6820   -0.2290 C.3    64  ILE64       0.1596
     55  C         -0.8980    8.6220   -0.5640 C.2    64  ILE64       0.2287
     56  O         -1.0360    7.8010   -1.4980 O.2    64  ILE64      -0.2864
     57  CB        -3.4060    9.0810   -0.3230 C.3    64  ILE64       0.0276
     58  CG1       -4.4480   10.1460    0.0210 C.3    64  ILE64       0.0022
     59  CG2       -3.5210    7.9020    0.6100 C.3    64  ILE64       0.0022
     60  CD1       -5.8560    9.8140   -0.4660 C.3    64  ILE64       0.0001
     61  N         -0.8540   12.6230    2.6690 N.3   101  MET101     -0.1245
     62  CA        -2.1550   12.7350    3.3170 C.3   101  MET101      0.1570
     63  C         -2.7120   11.3950    3.7480 C.2   101  MET101      0.2261
     64  O         -2.5900   10.4110    3.0060 O.2   101  MET101     -0.2867
     65  CB        -3.1810   13.3760    2.3600 C.3   101  MET101      0.0387
     66  CG        -2.8580   14.8040    1.8760 C.3   101  MET101      0.0595
     67  SD        -2.8820   16.0100    3.2120 S.3   101  MET101     -0.1393
     68  CE        -4.5650   16.0210    3.6720 C.3   101  MET101      0.0692
     69  N         -8.8820   13.0350    3.3130 N.3   106  VAL106     -0.1245
     70  CA        -9.0640   13.4680    1.9230 C.3   106  VAL106      0.1561
     71  C        -10.4660   13.0880    1.4840 C.2   106  VAL106      0.2260
     72  O        -10.7650   11.8960    1.3460 O.2   106  VAL106     -0.2867
     73  CB        -8.0800   12.7850    0.9600 C.3   106  VAL106      0.0252
     74  CG1       -8.3970   13.2300   -0.4820 C.3   106  VAL106      0.0019
     75  CG2       -6.6370   13.1230    1.3510 C.3   106  VAL106      0.0019
     76  N        -11.5940    8.7180    1.3340 N.3   113  PHE113     -0.1241
     77  CA       -10.9200    7.5170    0.8650 C.3   113  PHE113      0.1605
     78  C        -10.7390    6.3860    1.9140 C.2   113  PHE113      0.2264
     79  O        -10.2860    5.3000    1.5540 O.2   113  PHE113     -0.2867
     80  CB        -9.5520    7.9250    0.2960 C.3   113  PHE113      0.0534
     81  CG        -9.6340    8.5040   -1.0880 C.ar  113  PHE113     -0.0203
     82  CD1       -9.7910    7.6820   -2.1930 C.ar  113  PHE113     -0.0042
     83  CD2       -9.5580    9.8820   -1.2920 C.ar  113  PHE113     -0.0042
     84  CE1       -9.8790    8.2360   -3.5000 C.ar  113  PHE113     -0.0003
     85  CE2       -9.6430   10.4380   -2.5680 C.ar  113  PHE113     -0.0003
     86  CZ        -9.7990    9.6170   -3.6740 C.ar  113  PHE113     -0.0000
@<TRIPOS>BOND
     1    19    18    2
     2    25    26    1
     3    18    17    1
     4    16    17    1
     5    17    20    1
     6    26    27    1
     7    26    29    1
     8    27    28    2
     9    32    34   ar
    10    32    30   ar
    11    34    35   ar
    12    20    21    1
    13    29    30    1
    14    30    31   ar
    15    35    36    1
    16    35    33   ar
    17    31    33   ar
    18    21    22    1
    19     4     3    2
    20     7     6    1
    21     7     1    1
    22     6     5    1
    23     3     2    1
    24     3     8   am
    25    22    23    1
    26     9    10    1
    27     9     8    1
    28     9    12    1
    29    10    11    2
    30     5     2    1
    31     1     2    1
    32    12    13    1
    33    23    24    1
    34    13    14    1
    35    40    39    2
    36    86    84   ar
    37    86    85   ar
    38    84    82   ar
    39    15    14    1
    40    52    51    1
    41    51    48    1
    42    37    38    1
    43    85    83   ar
    44    39    38    1
    45    39    47   am
    46    48    47    1
    47    48    49    1
    48    82    81   ar
    49    38    41    1
    50    41    42    1
    51    43    42   ar
    52    43    45   ar
    53    56    55    2
    54    53    49   am
    55    53    54    1
    56    83    81   ar
    57    81    80    1
    58    49    50    2
    59    42    44   ar
    60    45    46   ar
    61    55    54    1
    62    74    73    1
    63    60    58    1
    64    57    54    1
    65    57    58    1
    66    57    59    1
    67    80    77    1
    68    44    46   ar
    69    77    76    1
    70    77    78    1
    71    73    75    1
    72    73    70    1
    73    72    71    2
    74    71    70    1
    75    79    78    2
    76    66    65    1
    77    66    67    1
    78    70    69    1
    79    65    62    1
    80    61    62    1
    81    64    63    2
    82    67    68    1
    83    62    63    1
