@<TRIPOS>MOLECULE
tmp/1mfpA01.pdb
 167 161 0 0 0
SMALL
GASTEIGER

@<TRIPOS>ATOM
      1  N          4.0490   20.0280  140.8320 N.3    92  GLY92      -0.1210
      2  CA         2.7680   20.5860  140.4530 C.3    92  GLY92       0.1956
      3  C          1.6850   19.4900  140.2570 C.2    92  GLY92       0.2612
      4  O          1.9400   18.3710  139.7230 O.2    92  GLY92      -0.2717
      5  N          0.4650   19.7730  140.7000 N.am   93  PHE93      -0.1962
      6  CA        -0.6050   18.8130  140.5140 C.3    93  PHE93       0.1771
      7  C         -1.9440   19.4840  140.5740 C.2    93  PHE93       0.2619
      8  O         -2.1130   20.5210  141.2030 O.2    93  PHE93      -0.2715
      9  CB        -0.6110   17.7420  141.6000 C.3    93  PHE93       0.0574
     10  CG        -1.6580   16.6810  141.3800 C.ar   93  PHE93      -0.0200
     11  CD1       -1.5550   15.7920  140.3200 C.ar   93  PHE93      -0.0042
     12  CD2       -2.7830   16.6160  142.1790 C.ar   93  PHE93      -0.0042
     13  CE1       -2.5850   14.8440  140.0600 C.ar   93  PHE93      -0.0003
     14  CE2       -3.7950   15.6880  141.9220 C.ar   93  PHE93      -0.0003
     15  CZ        -3.6940   14.8070  140.8640 C.ar   93  PHE93      -0.0000
     16  N         -2.9000   18.8390  139.9300 N.am   94  ALA94      -0.1977
     17  CA        -4.2830   19.2620  139.9460 C.3    94  ALA94       0.1597
     18  C         -5.0510   18.0720  139.3660 C.2    94  ALA94       0.2287
     19  O         -4.6540   17.4950  138.3520 O.2    94  ALA94      -0.2864
     20  CB        -4.4750   20.5060  139.1140 C.3    94  ALA94       0.0319
     21  N         -7.1070   15.6000  137.2770 N.3    96  GLY96      -0.1225
     22  CA        -7.2640   15.6210  135.8260 C.3    96  GLY96       0.1811
     23  C         -8.4850   16.3720  135.3430 C.2    96  GLY96       0.2280
     24  O         -8.3650   17.1850  134.4270 O.2    96  GLY96      -0.2866
     25  N         -8.1800   20.2570  134.4830 N.3    99  LEU99      -0.1245
     26  CA        -7.4900   20.8630  133.3650 C.3    99  LEU99       0.1561
     27  C         -7.9870   20.6830  131.9500 C.2    99  LEU99       0.2260
     28  O         -7.1860   20.3610  131.0610 O.2    99  LEU99      -0.2867
     29  CB        -6.0330   20.4240  133.4090 C.3    99  LEU99       0.0270
     30  CG        -5.1060   21.0500  134.4490 C.3    99  LEU99       0.0019
     31  CD1       -5.7730   22.2040  135.1750 C.3    99  LEU99       0.0001
     32  CD2       -4.6990   19.9840  135.4160 C.3    99  LEU99       0.0001
     33  N          4.6590   28.7510  135.6890 N.3   145  TYR145     -0.1241
     34  CA         4.2960   28.8090  134.2810 C.3   145  TYR145      0.1605
     35  C          3.5030   30.0930  134.0700 C.2   145  TYR145      0.2264
     36  O          2.8510   30.5490  135.0000 O.2   145  TYR145     -0.2867
     37  CB         3.4310   27.5910  133.9220 C.3   145  TYR145      0.0534
     38  CG         2.9530   27.6330  132.5130 C.ar  145  TYR145     -0.0201
     39  CD1        3.8630   27.6640  131.4670 C.ar  145  TYR145     -0.0009
     40  CD2        1.6140   27.6420  132.2160 C.ar  145  TYR145     -0.0009
     41  CE1        3.4570   27.7010  130.1350 C.ar  145  TYR145      0.0417
     42  CE2        1.1810   27.6810  130.8950 C.ar  145  TYR145      0.0417
     43  CZ         2.1200   27.7130  129.8390 C.ar  145  TYR145      0.1957
     44  OH         1.7160   27.7410  128.4940 O.3   145  TYR145     -0.2866
     45  N         -4.7700   31.1940  130.2470 N.3   152  ILE152     -0.1231
     46  CA        -4.4780   30.2650  129.1520 C.3   152  ILE152      0.1678
     47  C         -5.5130   29.1560  129.1760 C.2   152  ILE152      0.2434
     48  O         -5.8310   28.6180  130.2350 O.2   152  ILE152     -0.2733
     49  CB        -3.0810   29.6640  129.3660 C.3   152  ILE152      0.0265
     50  CG1       -2.0680   30.8280  129.2960 C.3   152  ILE152      0.0019
     51  CG2       -2.8180   28.4920  128.3940 C.3   152  ILE152      0.0020
     52  CD1       -0.6610   30.4480  129.4900 C.3   152  ILE152      0.0001
     53  N         -6.0420   28.7960  128.0050 N.am  153  PRO153     -0.2718
     54  CA        -7.0570   27.7390  127.9330 C.3   153  PRO153      0.1535
     55  C         -6.5960   26.4160  128.5240 C.2   153  PRO153      0.2599
     56  O         -5.4480   25.9770  128.3080 O.2   153  PRO153     -0.2715
     57  CB        -7.3510   27.6530  126.4460 C.3   153  PRO153      0.0310
     58  CG        -7.0590   29.1060  125.9550 C.3   153  PRO153      0.0237
     59  CD        -5.7930   29.3970  126.6860 C.3   153  PRO153      0.0939
     60  N         -7.4990   25.8230  129.3030 N.am  154  ASN154     -0.1959
     61  CA        -7.2840   24.5360  129.9640 C.3   154  ASN154      0.1819
     62  C         -6.3760   24.5370  131.1580 C.2   154  ASN154      0.2621
     63  O         -6.5150   23.6820  132.0280 O.2   154  ASN154     -0.2715
     64  CB        -6.7940   23.4870  128.9590 C.3   154  ASN154      0.1195
     65  CG        -7.6650   23.4540  127.7400 C.2   154  ASN154      0.2630
     66  OD1       -8.8920   23.3900  127.8620 O.2   154  ASN154     -0.2716
     67  ND2       -7.0550   23.5580  126.5540 N.am  154  ASN154     -0.0877
     68  N         -5.4670   25.4990  131.2240 N.am  155  TYR155     -0.1974
     69  CA        -4.5560   25.5080  132.3570 C.3   155  TYR155      0.1639
     70  C         -5.4720   25.7090  133.5670 C.2   155  TYR155      0.2290
     71  O         -5.2010   25.2150  134.6900 O.2   155  TYR155     -0.2864
     72  CB        -3.5080   26.6080  132.1890 C.3   155  TYR155      0.0560
     73  CG        -2.2400   26.3650  132.9880 C.ar  155  TYR155     -0.0198
     74  CD1       -1.4840   25.1990  132.7980 C.ar  155  TYR155     -0.0009
     75  CD2       -1.8730   27.2470  133.9980 C.ar  155  TYR155     -0.0009
     76  CE1       -0.3920   24.9240  133.6180 C.ar  155  TYR155      0.0417
     77  CE2       -0.8230   26.9830  134.8170 C.ar  155  TYR155      0.0417
     78  CZ        -0.0870   25.8200  134.6290 C.ar  155  TYR155      0.1957
     79  OH         0.8980   25.5620  135.5170 O.3   155  TYR155     -0.2866
     80  N         -4.7950   25.6850  137.5500 N.3   158  MET158     -0.1245
     81  CA        -3.3480   25.6880  137.7880 C.3   158  MET158      0.1570
     82  C         -2.8750   27.1600  137.7510 C.2   158  MET158      0.2261
     83  O         -1.9770   27.5540  138.4960 O.2   158  MET158     -0.2867
     84  CB        -2.6130   24.8390  136.7430 C.3   158  MET158      0.0387
     85  CG        -2.5140   23.3370  137.1240 C.3   158  MET158      0.0595
     86  SD        -1.6430   22.9240  138.7370 S.3   158  MET158     -0.1393
     87  CE        -0.1830   23.9080  138.5220 C.3   158  MET158      0.0692
     88  N         -0.4790   28.6720  140.4220 N.3   162  LYS162     -0.1245
     89  CA         0.8260   29.2580  140.0740 C.3   162  LYS162      0.1561
     90  C          0.9960   30.7130  140.5080 C.2   162  LYS162      0.2260
     91  O          2.1390   31.1860  140.7870 O.2   162  LYS162     -0.2867
     92  CB         1.1300   29.1540  138.5590 C.3   162  LYS162      0.0271
     93  CG         1.4930   27.7590  138.0530 C.3   162  LYS162      0.0035
     94  CD         2.5770   27.0230  138.8630 C.3   162  LYS162      0.0206
     95  CE         2.7000   25.5740  138.4000 C.3   162  LYS162      0.1093
     96  NZ         3.9750   24.8740  138.7420 N.3   162  LYS162     -0.1314
     97  N          8.9770   27.9440  129.8100 N.3   189  GLY189     -0.1210
     98  CA         8.1100   27.8860  128.6540 C.3   189  GLY189      0.1940
     99  C          7.6680   26.4310  128.5460 C.2   189  GLY189      0.2454
    100  O          8.1560   25.5750  129.2990 O.2   189  GLY189     -0.2732
    101  N          6.7410   26.1050  127.6250 N.am  190  PRO190     -0.2717
    102  CA         6.2250   24.7420  127.4210 C.3   190  PRO190      0.1535
    103  C          7.2640   23.6590  127.1030 C.2   190  PRO190      0.2598
    104  O          8.0230   23.7860  126.1510 O.2   190  PRO190     -0.2715
    105  CB         5.2430   24.9110  126.2630 C.3   190  PRO190      0.0310
    106  CG         4.8170   26.3410  126.3900 C.3   190  PRO190      0.0237
    107  CD         6.1070   27.0460  126.6920 C.3   190  PRO190      0.0939
    108  N          7.2690   22.5850  127.8900 N.am  191  ILE191     -0.1978
    109  CA         8.1920   21.4860  127.6920 C.3   191  ILE191      0.1596
    110  C          7.4230   20.1710  127.7030 C.2   191  ILE191      0.2287
    111  O          6.5200   19.9850  128.5110 O.2   191  ILE191     -0.2864
    112  CB         9.2550   21.4580  128.8060 C.3   191  ILE191      0.0276
    113  CG1       10.1730   22.6730  128.6880 C.3   191  ILE191      0.0022
    114  CG2       10.0940   20.2140  128.6870 C.3   191  ILE191      0.0022
    115  CD1       11.1870   22.7680  129.7650 C.3   191  ILE191      0.0001
    116  N          3.7710   15.1110  133.2450 N.3   195  ALA195     -0.1231
    117  CA         2.6720   15.9800  133.6770 C.3   195  ALA195      0.1694
    118  C          1.9850   16.7220  132.5280 C.2   195  ALA195      0.2592
    119  O          0.7890   17.0100  132.5980 O.2   195  ALA195     -0.2718
    120  CB         3.1760   16.9860  134.7100 C.3   195  ALA195      0.0304
    121  N          2.7400   17.0220  131.4730 N.am  196  ALA196     -0.1966
    122  CA         2.1910   17.7130  130.3080 C.3   196  ALA196      0.1728
    123  C          1.3870   16.8030  129.3580 C.2   196  ALA196      0.2616
    124  O          0.8170   17.2710  128.3770 O.2   196  ALA196     -0.2715
    125  CB         3.3220   18.3890  129.5460 C.3   196  ALA196      0.0334
    126  N          1.3300   15.5100  129.6480 N.am  197  SER197     -0.1950
    127  CA         0.6060   14.5810  128.7990 C.3   197  SER197      0.1924
    128  C         -0.8910   14.6630  129.0710 C.2   197  SER197      0.2314
    129  O         -1.2950   14.8750  130.2220 O.2   197  SER197     -0.2863
    130  CB         1.0930   13.1540  129.0580 C.3   197  SER197      0.2116
    131  OG         0.7740   12.7520  130.3830 O.3   197  SER197     -0.2180
    132  N         -3.4790   16.9720  128.2580 N.3   199  ILE199     -0.1231
    133  CA        -4.3090   18.1410  128.5910 C.3   199  ILE199      0.1692
    134  C         -5.1300   18.8550  127.5140 C.2   199  ILE199      0.2591
    135  O         -6.1810   19.4520  127.8150 O.2   199  ILE199     -0.2718
    136  CB        -3.4860   19.2080  129.3360 C.3   199  ILE199      0.0266
    137  CG1       -2.0720   19.2590  128.7750 C.3   199  ILE199      0.0019
    138  CG2       -3.4960   18.9000  130.8380 C.3   199  ILE199      0.0020
    139  CD1       -1.0420   18.8690  129.7940 C.3   199  ILE199      0.0001
    140  N         -4.6610   18.8100  126.2730 N.am  200  LYS200     -0.1980
    141  CA        -5.3690   19.4510  125.1630 C.3   200  LYS200      0.1596
    142  C         -4.5500   19.1050  123.9550 C.2   200  LYS200      0.2287
    143  O         -4.0040   17.9980  123.8690 O.2   200  LYS200     -0.2864
    144  CB        -5.4180   20.9750  125.3340 C.3   200  LYS200      0.0298
    145  CG        -4.0620   21.6850  125.3250 C.3   200  LYS200      0.0038
    146  CD        -4.2380   23.1930  125.4720 C.3   200  LYS200      0.0206
    147  CE        -2.9400   23.9570  125.2710 C.3   200  LYS200      0.1093
    148  NZ        -3.1390   25.4170  125.5110 N.3   200  LYS200     -0.1314
    149  N         -1.6240   19.8510  123.2100 N.3   202  PHE202     -0.1241
    150  CA        -0.3080   20.2510  123.6880 C.3   202  PHE202      0.1605
    151  C          0.6080   20.3150  122.4700 C.2   202  PHE202      0.2264
    152  O          1.2940   21.3130  122.2280 O.2   202  PHE202     -0.2867
    153  CB         0.1970   19.2000  124.6960 C.3   202  PHE202      0.0534
    154  CG         1.5130   19.5390  125.3460 C.ar  202  PHE202     -0.0203
    155  CD1        2.7110   19.2520  124.7140 C.ar  202  PHE202     -0.0042
    156  CD2        1.5460   20.1530  126.5990 C.ar  202  PHE202     -0.0042
    157  CE1        3.9210   19.5690  125.3170 C.ar  202  PHE202     -0.0003
    158  CE2        2.7520   20.4780  127.2100 C.ar  202  PHE202     -0.0003
    159  CZ         3.9410   20.1850  126.5690 C.ar  202  PHE202     -0.0000
    160  N          0.0340   23.1310  120.4070 N.3   205  MET205     -0.1245
    161  CA         0.4370   24.2510  121.2210 C.3   205  MET205      0.1570
    162  C          1.9540   24.4550  121.1250 C.2   205  MET205      0.2261
    163  O          2.4350   25.5680  120.8640 O.2   205  MET205     -0.2867
    164  CB         0.0040   23.9810  122.6490 C.3   205  MET205      0.0387
    165  CG         0.1520   25.1500  123.6000 C.3   205  MET205      0.0595
    166  SD         1.7750   25.1830  124.3270 S.3   205  MET205     -0.1393
    167  CE         1.8540   23.4600  124.9220 C.3   205  MET205      0.0692
@<TRIPOS>BOND
     1   160   161    1
     2   163   162    2
     3   162   161    1
     4   161   164    1
     5   152   151    2
     6   151   150    1
     7   164   165    1
     8   149   150    1
     9   165   166    1
    10   150   153    1
    11   143   142    2
    12   142   141    1
    13   166   167    1
    14   153   154    1
    15   155   157   ar
    16   155   154   ar
    17   141   144    1
    18   141   140    1
    19   147   146    1
    20   147   148    1
    21   157   159   ar
    22   145   144    1
    23   145   146    1
    24   154   156   ar
    25    58    57    1
    26    58    59    1
    27   104   103    2
    28   105   106    1
    29   105   102    1
    30   140   134   am
    31   106   107    1
    32    57    54    1
    33    67    65   am
    34   159   158   ar
    35   156   158   ar
    36    59    53    1
    37   107   101    1
    38   103   102    1
    39   103   108   am
    40   102   101    1
    41   134   135    2
    42   134   133    1
    43   101    99   am
    44   109   110    1
    45   109   108    1
    46   109   112    1
    47   110   111    2
    48    65    66    2
    49    65    64    1
    50    54    53    1
    51    54    55    1
    52    53    47   am
    53   132   133    1
    54    56    55    2
    55   124   123    2
    56    51    49    1
    57    44    43    1
    58    55    60   am
    59    99    98    1
    60    99   100    2
    61   133   136    1
    62    98    97    1
    63   114   112    1
    64   113   112    1
    65   113   115    1
    66   137   136    1
    67   137   139    1
    68   127   130    1
    69   127   128    1
    70   127   126    1
    71    64    61    1
    72   130   131    1
    73   128   129    2
    74    46    47    1
    75    46    49    1
    76    46    45    1
    77    47    48    2
    78    50    49    1
    79    50    52    1
    80    60    61    1
    81   136   138    1
    82   123   126   am
    83   123   122    1
    84   125   122    1
    85    43    41   ar
    86    43    42   ar
    87    61    62    1
    88    41    39   ar
    89   122   121    1
    90    42    40   ar
    91    28    27    2
    92    62    68   am
    93    62    63    2
    94    68    69    1
    95    39    38   ar
    96   121   118   am
    97    27    26    1
    98    72    69    1
    99    72    73    1
   100    40    38   ar
   101    69    70    1
   102    38    37    1
   103   118   119    2
   104   118   117    1
   105    74    73   ar
   106    74    76   ar
   107    73    75   ar
   108   116   117    1
   109    26    29    1
   110    26    25    1
   111    29    30    1
   112    70    71    2
   113    76    78   ar
   114   117   120    1
   115    37    34    1
   116    75    77   ar
   117    35    34    1
   118    35    36    2
   119    34    33    1
   120    24    23    2
   121    30    31    1
   122    30    32    1
   123    78    77   ar
   124    78    79    1
   125    23    22    1
   126    22    21    1
   127    84    85    1
   128    84    81    1
   129    85    86    1
   130    80    81    1
   131    82    81    1
   132    82    83    2
   133    93    92    1
   134    93    94    1
   135    19    18    2
   136    95    96    1
   137    95    94    1
   138    87    86    1
   139    92    89    1
   140    20    17    1
   141    18    17    1
   142     4     3    2
   143    16    17    1
   144    16     7   am
   145    13    11   ar
   146    13    15   ar
   147    89    88    1
   148    89    90    1
   149     3     2    1
   150     3     5   am
   151    11    10   ar
   152     2     1    1
   153    90    91    2
   154     6     7    1
   155     6     5    1
   156     6     9    1
   157     7     8    2
   158    15    14   ar
   159    10     9    1
   160    10    12   ar
   161    14    12   ar
