@<TRIPOS>MOLECULE
tmp/1mfuA00.pdb
 73 70 0 0 0
SMALL
GASTEIGER

@<TRIPOS>ATOM
      1  N         -1.1370   46.6970   24.4890 N.3    58  TRP58      -0.1241
      2  CA        -0.5340   45.8120   23.4900 C.3    58  TRP58       0.1605
      3  C         -1.5030   44.9800   22.6220 C.2    58  TRP58       0.2264
      4  O         -1.0790   44.3380   21.6620 O.2    58  TRP58      -0.2867
      5  CB         0.6180   44.9990   24.0730 C.3    58  TRP58       0.0550
      6  CG         0.3310   44.2500   25.3430 C.ar   58  TRP58       0.0003
      7  CD1        0.8480   44.5180   26.5890 C.ar   58  TRP58       0.0946
      8  CD2       -0.4880   43.0810   25.4960 C.ar   58  TRP58       0.0152
      9  NE1        0.3900   43.5950   27.5030 N.ar   58  TRP58      -0.2442
     10  CE2       -0.4270   42.6990   26.8600 C.ar   58  TRP58       0.0810
     11  CE3       -1.2640   42.3030   24.6160 C.ar   58  TRP58       0.0012
     12  CZ2       -1.1130   41.5780   27.3640 C.ar   58  TRP58       0.0191
     13  CZ3       -1.9380   41.1910   25.1180 C.ar   58  TRP58       0.0001
     14  CH2       -1.8640   40.8440   26.4820 C.ar   58  TRP58       0.0015
     15  N         -1.8830   43.2210   17.7680 N.3    62  GLN62      -0.1245
     16  CA        -2.4100   41.9270   17.2760 C.3    62  GLN62       0.1566
     17  C         -3.5550   42.1430   16.2770 C.2    62  GLN62       0.2260
     18  O         -4.7280   42.2090   16.6660 O.2    62  GLN62      -0.2867
     19  CB        -2.8920   41.0690   18.4510 C.3    62  GLN62       0.0367
     20  CG        -1.8080   40.8120   19.5080 C.3    62  GLN62       0.0905
     21  CD        -2.1890   39.7120   20.4850 C.2    62  GLN62       0.2608
     22  OE1       -2.9580   38.8170   20.1390 O.2    62  GLN62      -0.2717
     23  NE2       -1.6660   39.7880   21.7120 N.am   62  GLN62      -0.0878
     24  N         -1.9970   36.7490   18.3420 N.3   103  GLY103     -0.1210
     25  CA        -1.3980   35.6310   19.0660 C.3   103  GLY103      0.1956
     26  C         -2.0050   34.3210   18.5940 C.2   103  GLY103      0.2612
     27  O         -3.2260   34.2430   18.4020 O.2   103  GLY103     -0.2717
     28  N         -1.1710   33.3000   18.3810 N.am  104  ASN104     -0.1960
     29  CA        -1.6610   32.0140   17.8660 C.3   104  ASN104      0.1819
     30  C         -2.6210   31.2810   18.8130 C.2   104  ASN104      0.2621
     31  O         -3.4080   30.4370   18.3630 O.2   104  ASN104     -0.2715
     32  CB        -0.5010   31.0950   17.4230 C.3   104  ASN104      0.1195
     33  CG         0.1590   30.3670   18.5840 C.2   104  ASN104      0.2630
     34  OD1        1.1060   30.8690   19.1890 O.2   104  ASN104     -0.2716
     35  ND2       -0.3410   29.1700   18.9020 N.am  104  ASN104     -0.0877
     36  N         -2.5680   31.6290   20.1010 N.am  105  ALA105     -0.1963
     37  CA        -3.3770   30.9730   21.1340 C.3   105  ALA105      0.1728
     38  C         -4.6280   31.7610   21.5130 C.2   105  ALA105      0.2616
     39  O         -5.3450   31.3760   22.4510 O.2   105  ALA105     -0.2715
     40  CB        -2.5340   30.6990   22.3760 C.3   105  ALA105      0.0334
     41  N         -4.8880   32.8660   20.7980 N.am  106  VAL106     -0.1977
     42  CA        -6.0990   33.6590   21.0160 C.3   106  VAL106      0.1596
     43  C         -7.3290   32.8730   20.5250 C.2   106  VAL106      0.2287
     44  O         -7.2720   32.2350   19.4800 O.2   106  VAL106     -0.2864
     45  CB        -6.0390   35.0240   20.2640 C.3   106  VAL106      0.0276
     46  CG1       -7.3530   35.7820   20.3990 C.3   106  VAL106      0.0022
     47  CG2       -4.8580   35.8760   20.7660 C.3   106  VAL106      0.0022
     48  N          8.1090   29.4250   17.5410 N.3   146  ASP146     -0.1239
     49  CA         8.3520   30.8070   17.9770 C.3   146  ASP146      0.1674
     50  C          9.8360   31.1570   17.8500 C.2   146  ASP146      0.2266
     51  O         10.6780   30.2730   17.6040 O.2   146  ASP146     -0.2867
     52  CB         7.9100   31.0240   19.4330 C.3   146  ASP146      0.1410
     53  CG         6.4150   30.7390   19.6720 C.2   146  ASP146      0.3668
     54  OD1        5.6220   30.6200   18.7160 O.co2 146  ASP146     -0.2456
     55  OD2        5.9380   30.6210   20.8170 O.co2 146  ASP146     -0.2456
     56  N          6.9990   35.9940   19.9740 N.3   162  SER162     -0.1202
     57  CA         6.1360   35.6690   21.1120 C.3   162  SER162      0.2020
     58  C          4.7960   35.0610   20.6990 C.2   162  SER162      0.2619
     59  O          3.7580   35.4310   21.2380 O.2   162  SER162     -0.2717
     60  CB         5.8800   36.9060   21.9980 C.3   162  SER162      0.2103
     61  OG         7.0400   37.2590   22.7240 O.3   162  SER162     -0.2182
     62  N          4.8260   34.1430   19.7310 N.am  163  GLY163     -0.1942
     63  CA         3.6450   33.4200   19.3080 C.3   163  GLY163      0.2014
     64  C          2.6960   34.1580   18.3900 C.2   163  GLY163      0.2638
     65  O          1.6260   33.6460   18.0590 O.2   163  GLY163     -0.2714
     66  N          3.0730   35.3690   17.9840 N.am  164  LEU164     -0.1977
     67  CA         2.2830   36.1320   17.0130 C.3   164  LEU164      0.1596
     68  C          2.3680   35.5100   15.6240 C.2   164  LEU164      0.2287
     69  O          3.4650   35.2980   15.1040 O.2   164  LEU164     -0.2864
     70  CB         2.7560   37.5890   16.9580 C.3   164  LEU164      0.0297
     71  CG         2.6160   38.3900   18.2490 C.3   164  LEU164      0.0022
     72  CD1        3.5340   39.6350   18.1720 C.3   164  LEU164      0.0001
     73  CD2        1.1450   38.7830   18.4850 C.3   164  LEU164      0.0001
@<TRIPOS>BOND
     1    69    68    2
     2    68    67    1
     3    17    18    2
     4    17    16    1
     5    70    67    1
     6    70    71    1
     7    67    66    1
     8    16    15    1
     9    16    19    1
    10    32    29    1
    11    32    33    1
    12    48    49    1
    13    51    50    2
    14    50    49    1
    15    29    28    1
    16    29    30    1
    17    49    52    1
    18    66    64   am
    19    65    64    2
    20    72    71    1
    21    71    73    1
    22    24    25    1
    23    31    30    2
    24    28    26   am
    25    64    63    1
    26    27    26    2
    27    19    20    1
    28    33    35   am
    29    33    34    2
    30    26    25    1
    31    54    53   ar
    32    30    36   am
    33    63    62    1
    34    52    53    1
    35    44    43    2
    36    20    21    1
    37    53    55   ar
    38    62    58   am
    39    56    57    1
    40    36    37    1
    41    22    21    2
    42    45    46    1
    43    45    47    1
    44    45    42    1
    45    21    23   am
    46    43    42    1
    47    58    57    1
    48    58    59    2
    49    41    42    1
    50    41    38   am
    51    57    60    1
    52    37    38    1
    53    37    40    1
    54    38    39    2
    55     4     3    2
    56    60    61    1
    57     3     2    1
    58     2     5    1
    59     2     1    1
    60     5     6    1
    61    11    13   ar
    62    11     8   ar
    63    13    14   ar
    64     6     8   ar
    65     6     7   ar
    66     8    10   ar
    67    14    12   ar
    68     7     9   ar
    69    10    12   ar
    70    10     9   ar
