@<TRIPOS>MOLECULE
tmp/1mfuA02.pdb
 156 153 0 0 0
SMALL
GASTEIGER

@<TRIPOS>ATOM
      1  N         -2.6550   48.0100   26.3000 N.3    57  TRP57      -0.1227
      2  CA        -2.1950   48.7800   25.1420 C.3    57  TRP57       0.1737
      3  C         -1.7090   47.8190   24.0730 C.2    57  TRP57       0.2595
      4  O         -1.8800   48.0660   22.8710 O.2    57  TRP57      -0.2718
      5  CB        -1.0980   49.7670   25.5160 C.3    57  TRP57       0.0564
      6  CG         0.1010   49.1350   26.0710 C.ar   57  TRP57       0.0003
      7  CD1        0.3840   48.9190   27.3960 C.ar   57  TRP57       0.0946
      8  CD2        1.2110   48.6350   25.3370 C.ar   57  TRP57       0.0152
      9  NE1        1.6070   48.2990   27.5200 N.ar   57  TRP57      -0.2442
     10  CE2        2.1390   48.1210   26.2690 C.ar   57  TRP57       0.0810
     11  CE3        1.5260   48.5760   23.9720 C.ar   57  TRP57       0.0012
     12  CZ2        3.3530   47.5450   25.8790 C.ar   57  TRP57       0.0191
     13  CZ3        2.7110   48.0140   23.5840 C.ar   57  TRP57       0.0001
     14  CH2        3.6190   47.4930   24.5370 C.ar   57  TRP57       0.0015
     15  N         -1.1370   46.6970   24.4890 N.am   58  TRP58      -0.1976
     16  CA        -0.5340   45.8120   23.4900 C.3    58  TRP58       0.1640
     17  C         -1.5030   44.9800   22.6220 C.2    58  TRP58       0.2290
     18  O         -1.0790   44.3380   21.6620 O.2    58  TRP58      -0.2864
     19  CB         0.6180   44.9990   24.0730 C.3    58  TRP58       0.0576
     20  CG         0.3310   44.2500   25.3430 C.ar   58  TRP58       0.0006
     21  CD1        0.8480   44.5180   26.5890 C.ar   58  TRP58       0.0946
     22  CD2       -0.4880   43.0810   25.4960 C.ar   58  TRP58       0.0152
     23  NE1        0.3900   43.5950   27.5030 N.ar   58  TRP58      -0.2442
     24  CE2       -0.4270   42.6990   26.8600 C.ar   58  TRP58       0.0810
     25  CE3       -1.2640   42.3030   24.6160 C.ar   58  TRP58       0.0012
     26  CZ2       -1.1130   41.5780   27.3640 C.ar   58  TRP58       0.0191
     27  CZ3       -1.9380   41.1910   25.1180 C.ar   58  TRP58       0.0001
     28  CH2       -1.8640   40.8440   26.4820 C.ar   58  TRP58       0.0015
     29  N         -1.2810   45.6180   18.8500 N.3    61  TYR61      -0.1241
     30  CA        -0.2170   44.9870   18.0740 C.3    61  TYR61       0.1605
     31  C         -0.5860   43.5510   17.6700 C.2    61  TYR61       0.2264
     32  O          0.2810   42.7910   17.2290 O.2    61  TYR61      -0.2867
     33  CB         1.1410   45.0990   18.8100 C.3    61  TYR61       0.0534
     34  CG         1.5220   46.5530   18.8760 C.ar   61  TYR61      -0.0201
     35  CD1        2.1630   47.1610   17.7980 C.ar   61  TYR61      -0.0009
     36  CD2        1.1210   47.3500   19.9460 C.ar   61  TYR61      -0.0009
     37  CE1        2.4430   48.5330   17.7970 C.ar   61  TYR61       0.0417
     38  CE2        1.4040   48.7300   19.9620 C.ar   61  TYR61       0.0417
     39  CZ         2.0620   49.3060   18.8720 C.ar   61  TYR61       0.1957
     40  OH         2.3480   50.6590   18.8650 O.3    61  TYR61      -0.2866
     41  N          2.7780   40.4670   11.1970 N.3   100  HIS100     -0.1241
     42  CA         2.0410   39.3920   11.8630 C.3   100  HIS100      0.1621
     43  C          0.5820   39.7150   11.9940 C.2   100  HIS100      0.2264
     44  O          0.1860   40.8600   11.7920 O.2   100  HIS100     -0.2867
     45  CB         2.6140   39.1050   13.2670 C.3   100  HIS100      0.0745
     46  CG         2.8000   40.3220   14.1190 C.ar  100  HIS100      0.0817
     47  ND1        4.0020   40.9880   14.2020 N.ar  100  HIS100     -0.2268
     48  CD2        1.9430   40.9870   14.9330 C.ar  100  HIS100      0.1154
     49  CE1        3.8770   42.0220   15.0200 C.ar  100  HIS100      0.1986
     50  NE2        2.6380   42.0410   15.4780 N.ar  100  HIS100     -0.2212
     51  N         17.8700   34.9720   19.1680 N.3   150  TYR150     -0.1241
     52  CA        18.0910   36.1580   18.3380 C.3   150  TYR150      0.1605
     53  C         19.4310   36.1010   17.6000 C.2   150  TYR150      0.2264
     54  O         19.7080   36.9210   16.7240 O.2   150  TYR150     -0.2867
     55  CB        17.9820   37.4320   19.1860 C.3   150  TYR150      0.0534
     56  CG        16.5580   37.9380   19.2930 C.ar  150  TYR150     -0.0201
     57  CD1       15.6690   37.3940   20.2250 C.ar  150  TYR150     -0.0009
     58  CD2       16.0910   38.9350   18.4410 C.ar  150  TYR150     -0.0009
     59  CE1       14.3580   37.8500   20.3210 C.ar  150  TYR150      0.0417
     60  CE2       14.7860   39.4010   18.5270 C.ar  150  TYR150      0.0417
     61  CZ        13.9240   38.8550   19.4690 C.ar  150  TYR150      0.1957
     62  OH        12.6270   39.3060   19.5470 O.3   150  TYR150     -0.2866
     63  N          7.0730   35.8480   16.6370 N.3   161  LEU161     -0.1245
     64  CA         7.5300   36.7180   17.7260 C.3   161  LEU161      0.1561
     65  C          6.5440   36.5720   18.8620 C.2   161  LEU161      0.2260
     66  O          5.3860   36.9590   18.7230 O.2   161  LEU161     -0.2867
     67  CB         7.6130   38.1760   17.2590 C.3   161  LEU161      0.0270
     68  CG         7.8040   39.2640   18.3320 C.3   161  LEU161      0.0019
     69  CD1        9.1720   39.1790   19.0100 C.3   161  LEU161      0.0001
     70  CD2        7.5900   40.6460   17.6710 C.3   161  LEU161      0.0001
     71  N          3.0730   35.3690   17.9840 N.3   164  LEU164     -0.1245
     72  CA         2.2830   36.1320   17.0130 C.3   164  LEU164      0.1561
     73  C          2.3680   35.5100   15.6240 C.2   164  LEU164      0.2260
     74  O          3.4650   35.2980   15.1040 O.2   164  LEU164     -0.2867
     75  CB         2.7560   37.5890   16.9580 C.3   164  LEU164      0.0270
     76  CG         2.6160   38.3900   18.2490 C.3   164  LEU164      0.0019
     77  CD1        3.5340   39.6350   18.1720 C.3   164  LEU164      0.0001
     78  CD2        1.1450   38.7830   18.4850 C.3   164  LEU164      0.0001
     79  N          5.6260   54.3240   10.5360 N.3   194  ARG194     -0.1245
     80  CA         6.5230   53.6660   11.4770 C.3   194  ARG194      0.1563
     81  C          6.3190   52.1820   11.2070 C.2   194  ARG194      0.2260
     82  O          5.2230   51.6760   11.4410 O.2   194  ARG194     -0.2867
     83  CB         6.1030   53.9960   12.9170 C.3   194  ARG194      0.0307
     84  CG         7.0120   53.3370   13.9990 C.3   194  ARG194      0.0489
     85  CD         6.2330   52.4700   14.9570 C.3   194  ARG194      0.2205
     86  NE         7.1010   51.8470   15.9660 N.pl3 194  ARG194     -0.0865
     87  CZ         6.8490   50.6790   16.5240 C.cat 194  ARG194      0.5346
     88  NH1        5.7400   50.0330   16.1800 N.pl3 194  ARG194      0.1354
     89  NH2        7.6900   50.1550   17.4270 N.pl3 194  ARG194      0.1354
     90  N          6.4420   48.7020   12.2730 N.3   196  ASP196     -0.1225
     91  CA         6.5270   47.8710   13.4600 C.3   196  ASP196      0.1805
     92  C          7.2690   46.5680   13.1940 C.2   196  ASP196      0.2597
     93  O          7.1130   45.9720   12.1160 O.2   196  ASP196     -0.2718
     94  CB         5.1130   47.5490   13.9370 C.3   196  ASP196      0.1424
     95  CG         5.1030   46.6050   15.1150 C.2   196  ASP196      0.3668
     96  OD1        5.5700   47.0140   16.2030 O.co2 196  ASP196     -0.2456
     97  OD2        4.6760   45.4350   15.0280 O.co2 196  ASP196     -0.2456
     98  N          8.0710   46.1540   14.1790 N.am  197  ALA197     -0.1979
     99  CA         8.7500   44.8600   14.1860 C.3   197  ALA197      0.1597
    100  C          9.5850   44.6210   12.9060 C.2   197  ALA197      0.2287
    101  O          9.5650   43.5150   12.3240 O.2   197  ALA197     -0.2864
    102  CB         7.7250   43.7470   14.3900 C.3   197  ALA197      0.0319
    103  N         12.7190   44.2860   12.3550 N.3   199  LYS199     -0.1231
    104  CA        13.7280   43.2340   12.5440 C.3   199  LYS199      0.1693
    105  C         13.2380   41.8230   12.1760 C.2   199  LYS199      0.2592
    106  O         14.0200   40.9880   11.7280 O.2   199  LYS199     -0.2718
    107  CB        14.2550   43.2380   13.9800 C.3   199  LYS199      0.0285
    108  CG        15.4300   42.2540   14.2100 C.3   199  LYS199      0.0035
    109  CD        15.7360   42.0900   15.6870 C.3   199  LYS199      0.0206
    110  CE        16.7370   43.1140   16.1430 C.3   199  LYS199      0.1093
    111  NZ        17.0180   42.9530   17.6130 N.3   199  LYS199     -0.1314
    112  N         11.9340   41.6100   12.3340 N.am  200  HIS200     -0.1976
    113  CA        11.2920   40.3250   12.1240 C.3   200  HIS200      0.1656
    114  C         10.8650   40.1140   10.6720 C.2   200  HIS200      0.2291
    115  O         10.2450   39.0990   10.3450 O.2   200  HIS200     -0.2864
    116  CB        10.1580   40.2060   13.1420 C.3   200  HIS200      0.0771
    117  CG        10.6600   40.3630   14.5400 C.ar  200  HIS200      0.0820
    118  ND1       11.4300   39.3980   15.1500 N.ar  200  HIS200     -0.2267
    119  CD2       10.6350   41.4190   15.3880 C.ar  200  HIS200      0.1154
    120  CE1       11.8160   39.8340   16.3400 C.ar  200  HIS200      0.1986
    121  NE2       11.3640   41.0650   16.4990 N.ar  200  HIS200     -0.2212
    122  N         11.1910   50.2140   12.8690 N.3   232  GLU232     -0.1245
    123  CA        11.5950   49.8340   14.2230 C.3   232  GLU232      0.1567
    124  C         12.5580   48.6430   14.2130 C.2   232  GLU232      0.2260
    125  O         12.1500   47.4840   13.9650 O.2   232  GLU232     -0.2867
    126  CB        10.3860   49.5190   15.1030 C.3   232  GLU232      0.0388
    127  CG        10.7960   49.2980   16.5530 C.3   232  GLU232      0.1160
    128  CD        10.1980   48.0390   17.2000 C.2   232  GLU232      0.3649
    129  OE1        9.6520   47.1710   16.5090 O.co2 232  GLU232     -0.2457
    130  OE2       10.2530   47.9410   18.4250 O.co2 232  GLU232     -0.2457
    131  N         15.5450   47.3080   16.9200 N.3   234  ILE234     -0.1245
    132  CA        16.3090   47.4990   18.1450 C.3   234  ILE234      0.1561
    133  C         17.6750   46.8640   17.9560 C.2   234  ILE234      0.2260
    134  O         17.8030   45.6290   17.9470 O.2   234  ILE234     -0.2867
    135  CB        15.5720   46.9270   19.4000 C.3   234  ILE234      0.0252
    136  CG1       14.2110   47.6070   19.5800 C.3   234  ILE234      0.0019
    137  CG2       16.4290   47.1260   20.6750 C.3   234  ILE234      0.0019
    138  CD1       13.3280   46.9630   20.6440 C.3   234  ILE234      0.0001
    139  N          7.0330   53.9550   23.4010 N.3   298  HIS298     -0.1226
    140  CA         5.8950   53.4020   24.1550 C.3   298  HIS298      0.1752
    141  C          6.2430   52.0750   24.8510 C.2   298  HIS298      0.2596
    142  O          5.6870   51.7660   25.8990 O.2   298  HIS298     -0.2718
    143  CB         4.6570   53.2420   23.2440 C.3   298  HIS298      0.0759
    144  CG         4.8200   52.1940   22.1770 C.ar  298  HIS298      0.0818
    145  ND1        5.4510   52.4460   20.9750 N.ar  298  HIS298     -0.2268
    146  CD2        4.4270   50.8950   22.1310 C.ar  298  HIS298      0.1154
    147  CE1        5.4600   51.3430   20.2430 C.ar  298  HIS298      0.1986
    148  NE2        4.8390   50.3850   20.9190 N.ar  298  HIS298     -0.2212
    149  N          7.1730   51.3130   24.2710 N.am  299  ASP299     -0.1974
    150  CA         7.6680   50.0800   24.8920 C.3   299  ASP299      0.1709
    151  C          8.6100   50.3580   26.0510 C.2   299  ASP299      0.2293
    152  O          8.4010   49.8690   27.1650 O.2   299  ASP299     -0.2864
    153  CB         8.4800   49.2630   23.8910 C.3   299  ASP299      0.1436
    154  CG         7.6230   48.5160   22.9040 C.2   299  ASP299      0.3671
    155  OD1        6.4260   48.2580   23.2110 O.co2 299  ASP299     -0.2456
    156  OD2        8.1110   48.1160   21.8100 O.co2 299  ASP299     -0.2456
@<TRIPOS>BOND
     1   115   114    2
     2    79    80    1
     3   114   113    1
     4    41    42    1
     5    81    82    2
     6    81    80    1
     7    80    83    1
     8   106   105    2
     9    44    43    2
    10    42    43    1
    11    42    45    1
    12    93    92    2
    13   113   112    1
    14   113   116    1
    15   105   112   am
    16   105   104    1
    17    90    91    1
    18   101   100    2
    19   103   104    1
    20   104   107    1
    21   122   123    1
    22   100    99    1
    23    83    84    1
    24   116   117    1
    25    92    91    1
    26    92    98   am
    27    45    46    1
    28    91    94    1
    29    94    95    1
    30   125   124    2
    31   107   108    1
    32    84    85    1
    33    46    47   ar
    34    46    48   ar
    35    98    99    1
    36    99   102    1
    37    47    49   ar
    38   108   109    1
    39   124   123    1
    40   123   126    1
    41   117   118   ar
    42   117   119   ar
    43    48    50   ar
    44    85    86    1
    45    49    50   ar
    46    97    95   ar
    47   126   127    1
    48    74    73    2
    49    95    96   ar
    50   118   120   ar
    51   119   121   ar
    52    73    72    1
    53   109   110    1
    54    86    87    2
    55   110   111    1
    56    88    87    1
    57   120   121   ar
    58   129   128   ar
    59    87    89    1
    60   127   128    1
    61    63    64    1
    62    54    53    2
    63   131   132    1
    64    75    72    1
    65    75    76    1
    66    72    71    1
    67   128   130   ar
    68    32    31    2
    69    67    64    1
    70    67    68    1
    71    53    52    1
    72    31    30    1
    73    70    68    1
    74    64    65    1
    75    37    35   ar
    76    37    39   ar
    77    35    34   ar
    78   134   133    2
    79   133   132    1
    80    30    33    1
    81    30    29    1
    82   132   135    1
    83    77    76    1
    84    76    78    1
    85    68    69    1
    86    52    51    1
    87    52    55    1
    88    58    60   ar
    89    58    56   ar
    90    60    61   ar
    91    66    65    2
    92    33    34    1
    93    40    39    1
    94    39    38   ar
    95    34    36   ar
    96    55    56    1
    97    56    57   ar
    98   135   136    1
    99   135   137    1
   100    61    62    1
   101    61    59   ar
   102   136   138    1
   103    36    38   ar
   104    57    59   ar
   105   147   148   ar
   106   147   145   ar
   107   148   146   ar
   108   145   144   ar
   109    18    17    2
   110   156   154   ar
   111   146   144   ar
   112   144   143    1
   113    17    16    1
   114     4     3    2
   115   154   155   ar
   116   154   153    1
   117   143   140    1
   118   139   140    1
   119    16    19    1
   120    16    15    1
   121    13    11   ar
   122    13    14   ar
   123   153   150    1
   124    11     8   ar
   125    19    20    1
   126     3    15   am
   127     3     2    1
   128   140   141    1
   129   149   141   am
   130   149   150    1
   131    14    12   ar
   132    25    27   ar
   133    25    22   ar
   134   141   142    2
   135   150   151    1
   136    27    28   ar
   137     2     5    1
   138     2     1    1
   139     8     6   ar
   140     8    10   ar
   141    20    22   ar
   142    20    21   ar
   143    22    24   ar
   144     5     6    1
   145    12    10   ar
   146   151   152    2
   147     6     7   ar
   148    10     9   ar
   149    28    26   ar
   150    21    23   ar
   151    24    26   ar
   152    24    23   ar
   153     7     9   ar
