@<TRIPOS>MOLECULE
tmp/1mfuA07.pdb
 103 99 0 0 0
SMALL
GASTEIGER

@<TRIPOS>ATOM
      1  N         13.1380   66.0390   31.1320 N.3   316  LYS316     -0.1245
      2  CA        13.0940   67.3080   30.4140 C.3   316  LYS316      0.1561
      3  C         14.4720   67.7130   29.8820 C.2   316  LYS316      0.2260
      4  O         14.5710   68.2520   28.7790 O.2   316  LYS316     -0.2867
      5  CB        12.5180   68.4210   31.2960 C.3   316  LYS316      0.0271
      6  CG        10.9720   68.3910   31.3780 C.3   316  LYS316      0.0035
      7  CD        10.4100   69.4740   32.3220 C.3   316  LYS316      0.0206
      8  CE        10.4890   69.0360   33.7880 C.3   316  LYS316      0.1093
      9  NZ        10.0640   70.1110   34.7250 N.3   316  LYS316     -0.1314
     10  N         -4.6950   75.7030   32.4850 N.3   369  ASP369     -0.1225
     11  CA        -3.2830   76.0500   32.3120 C.3   369  ASP369      0.1805
     12  C         -2.6080   75.4010   31.0860 C.2   369  ASP369      0.2598
     13  O         -1.3800   75.4440   30.9590 O.2   369  ASP369     -0.2718
     14  CB        -2.5200   75.6810   33.5870 C.3   369  ASP369      0.1424
     15  CG        -2.5050   74.1920   33.8490 C.2   369  ASP369      0.3668
     16  OD1       -3.0400   73.4080   33.0260 O.co2 369  ASP369     -0.2456
     17  OD2       -1.9900   73.7060   34.8740 O.co2 369  ASP369     -0.2456
     18  N         -3.4120   74.7960   30.2090 N.am  370  THR370     -0.1939
     19  CA        -2.9700   74.1000   28.9800 C.3   370  THR370      0.2028
     20  C         -2.3330   72.6980   29.1660 C.2   370  THR370      0.2642
     21  O         -1.8870   72.0730   28.1840 O.2   370  THR370     -0.2714
     22  CB        -2.0540   74.9690   28.0480 C.3   370  THR370      0.1808
     23  OG1       -0.7090   74.9140   28.5210 O.3   370  THR370     -0.2208
     24  CG2       -2.4020   76.4500   28.0880 C.3   370  THR370      0.0379
     25  N         -2.2890   72.2080   30.4010 N.am  371  THR371     -0.1950
     26  CA        -1.9510   70.8030   30.6250 C.3   371  THR371      0.1897
     27  C         -3.1720   69.9170   30.3340 C.2   371  THR371      0.2313
     28  O         -4.2480   70.4310   30.0300 O.2   371  THR371     -0.2863
     29  CB        -1.4430   70.5600   32.0510 C.3   371  THR371      0.1794
     30  OG1       -2.4980   70.8310   32.9990 O.3   371  THR371     -0.2208
     31  CG2       -0.3190   71.5420   32.3870 C.3   371  THR371      0.0378
     32  N          3.0600   69.1460   25.5900 N.3   381  ARG381     -0.1231
     33  CA         2.4950   70.4090   26.0620 C.3   381  ARG381      0.1694
     34  C          3.2800   70.9560   27.2810 C.2   381  ARG381      0.2592
     35  O          3.0090   72.0690   27.7430 O.2   381  ARG381     -0.2718
     36  CB         1.0130   70.2240   26.4570 C.3   381  ARG381      0.0321
     37  CG         0.0070   70.4000   25.3060 C.3   381  ARG381      0.0489
     38  CD        -1.4020   69.9580   25.6630 C.3   381  ARG381      0.2205
     39  NE        -2.3630   70.2300   24.5820 N.pl3 381  ARG381     -0.0865
     40  CZ        -3.0860   71.3390   24.4770 C.cat 381  ARG381      0.5346
     41  NH1       -2.9800   72.3000   25.3880 N.pl3 381  ARG381      0.1354
     42  NH2       -3.9280   71.4850   23.4550 N.pl3 381  ARG381      0.1354
     43  N          4.2190   70.1820   27.8250 N.am  382  TRP382     -0.1962
     44  CA         5.0820   70.7070   28.8970 C.3   382  TRP382      0.1771
     45  C          5.8600   71.8660   28.3100 C.2   382  TRP382      0.2619
     46  O          6.4910   71.7100   27.2380 O.2   382  TRP382     -0.2715
     47  CB         6.0720   69.6600   29.3930 C.3   382  TRP382      0.0590
     48  CG         5.4450   68.4730   30.1400 C.ar  382  TRP382      0.0006
     49  CD1        4.1030   68.1430   30.2450 C.ar  382  TRP382      0.0946
     50  CD2        6.1610   67.4660   30.8440 C.ar  382  TRP382      0.0152
     51  NE1        3.9570   66.9970   30.9920 N.ar  382  TRP382     -0.2442
     52  CE2        5.2040   66.5650   31.3860 C.ar  382  TRP382      0.0810
     53  CE3        7.5340   67.2510   31.1210 C.ar  382  TRP382      0.0012
     54  CZ2        5.5700   65.4580   32.1530 C.ar  382  TRP382      0.0191
     55  CZ3        7.8970   66.1460   31.8750 C.ar  382  TRP382      0.0001
     56  CH2        6.9090   65.2660   32.3930 C.ar  382  TRP382      0.0015
     57  N          5.8380   73.0180   28.9840 N.am  383  ARG383     -0.1963
     58  CA         6.4440   74.2110   28.4000 C.3   383  ARG383      0.1729
     59  C          7.8850   73.9400   27.9500 C.2   383  ARG383      0.2616
     60  O          8.2720   74.3000   26.8510 O.2   383  ARG383     -0.2715
     61  CB         6.4000   75.4090   29.3660 C.3   383  ARG383      0.0348
     62  CG         6.9350   76.7420   28.7580 C.3   383  ARG383      0.0492
     63  CD         7.2080   77.8420   29.8400 C.3   383  ARG383      0.2205
     64  NE         8.0950   77.2780   30.8450 N.pl3 383  ARG383     -0.0865
     65  CZ         7.7360   76.9420   32.0700 C.cat 383  ARG383      0.5346
     66  NH1        6.5000   77.1890   32.5120 N.pl3 383  ARG383      0.1354
     67  NH2        8.6210   76.3580   32.8580 N.pl3 383  ARG383      0.1354
     68  N          8.6640   73.2820   28.7980 N.am  384  GLN384     -0.1977
     69  CA        10.0760   73.0070   28.5110 C.3   384  GLN384      0.1601
     70  C         10.2650   72.2050   27.2190 C.2   384  GLN384      0.2287
     71  O         11.2600   72.3680   26.5310 O.2   384  GLN384     -0.2864
     72  CB        10.7360   72.2850   29.6890 C.3   384  GLN384      0.0394
     73  CG        10.6990   73.0530   31.0340 C.3   384  GLN384      0.0908
     74  CD         9.3910   72.8770   31.8420 C.2   384  GLN384      0.2608
     75  OE1        8.3250   72.5450   31.2930 O.2   384  GLN384     -0.2717
     76  NE2        9.4800   73.0950   33.1520 N.am  384  GLN384     -0.0878
     77  N          7.6730   71.6130   24.6330 N.3   386  ARG386     -0.1245
     78  CA         7.0790   72.3930   23.5620 C.3   386  ARG386      0.1563
     79  C          8.0130   73.4970   23.0650 C.2   386  ARG386      0.2260
     80  O          8.1820   73.6640   21.8420 O.2   386  ARG386     -0.2867
     81  CB         5.7340   72.9770   23.9970 C.3   386  ARG386      0.0307
     82  CG         5.0990   73.9230   22.9710 C.3   386  ARG386      0.0489
     83  CD         5.0050   75.3550   23.4800 C.3   386  ARG386      0.2205
     84  NE         4.2190   75.3830   24.7130 N.pl3 386  ARG386     -0.0865
     85  CZ         4.2870   76.3260   25.6450 C.cat 386  ARG386      0.5346
     86  NH1        5.1120   77.3640   25.5000 N.pl3 386  ARG386      0.1354
     87  NH2        3.5030   76.2270   26.7210 N.pl3 386  ARG386      0.1354
     88  N          8.2250   81.9930   28.6960 N.3   450  ASP450     -0.1239
     89  CA         7.8480   82.2720   27.3190 C.3   450  ASP450      0.1674
     90  C          8.1400   83.7290   27.0060 C.2   450  ASP450      0.2266
     91  O          8.1440   84.5660   27.9110 O.2   450  ASP450     -0.2867
     92  CB         6.3460   82.0830   27.1410 C.3   450  ASP450      0.1410
     93  CG         5.9010   80.6630   27.3600 C.2   450  ASP450      0.3668
     94  OD1        6.2690   79.7980   26.5580 O.co2 450  ASP450     -0.2456
     95  OD2        5.1350   80.3290   28.2820 O.co2 450  ASP450     -0.2456
     96  N          6.2480   86.6930   25.5170 N.3   452  ILE452     -0.1245
     97  CA         4.8780   87.1220   25.2170 C.3   452  ILE452      0.1561
     98  C          4.8980   88.6210   24.9970 C.2   452  ILE452      0.2260
     99  O          5.3550   89.4010   25.8550 O.2   452  ILE452     -0.2867
    100  CB         3.8570   86.6810   26.2820 C.3   452  ILE452      0.0252
    101  CG1        3.6080   85.1670   26.1590 C.3   452  ILE452      0.0019
    102  CG2        2.5050   87.3610   26.0310 C.3   452  ILE452      0.0019
    103  CD1        3.5090   84.4170   27.4440 C.3   452  ILE452      0.0001
@<TRIPOS>BOND
     1    80    79    2
     2    82    83    1
     3    82    81    1
     4    79    78    1
     5    42    40    1
     6    83    84    1
     7    78    81    1
     8    78    77    1
     9    40    39    2
    10    40    41    1
    11    39    38    1
    12    84    85    2
    13    98    97    1
    14    98    99    2
    15    97    96    1
    16    97   100    1
    17    37    38    1
    18    37    36    1
    19    86    85    1
    20    32    33    1
    21    85    87    1
    22   102   100    1
    23    33    36    1
    24    33    34    1
    25   101   100    1
    26   101   103    1
    27    71    70    2
    28    94    93   ar
    29    60    59    2
    30    90    89    1
    31    90    91    2
    32    92    89    1
    33    92    93    1
    34    70    69    1
    35    46    45    2
    36    34    35    2
    37    34    43   am
    38    89    88    1
    39    93    95   ar
    40    43    44    1
    41    59    58    1
    42    59    68   am
    43    22    24    1
    44    22    23    1
    45    22    19    1
    46    21    20    2
    47    45    44    1
    48    45    57   am
    49    58    57    1
    50    58    61    1
    51    69    68    1
    52    69    72    1
    53    62    61    1
    54    62    63    1
    55     4     3    2
    56    44    47    1
    57    19    20    1
    58    19    18    1
    59    20    25   am
    60    47    48    1
    61    72    73    1
    62    63    64    1
    63     3     2    1
    64    28    27    2
    65    48    49   ar
    66    48    50   ar
    67    18    12   am
    68    49    51   ar
    69    27    26    1
    70    25    26    1
    71     2     1    1
    72     2     5    1
    73    26    29    1
    74    50    53   ar
    75    50    52   ar
    76    64    65    2
    77    13    12    2
    78    51    52   ar
    79    73    74    1
    80    12    11    1
    81    53    55   ar
    82    75    74    2
    83     5     6    1
    84     6     7    1
    85    52    54   ar
    86    74    76   am
    87    55    56   ar
    88    29    31    1
    89    29    30    1
    90    65    66    1
    91    65    67    1
    92    54    56   ar
    93    11    10    1
    94    11    14    1
    95     7     8    1
    96    16    15   ar
    97    14    15    1
    98     8     9    1
    99    15    17   ar
