@<TRIPOS>MOLECULE
tmp/1mfuA08.pdb
 104 99 0 0 0
SMALL
GASTEIGER

@<TRIPOS>ATOM
      1  N          8.5960   60.3900   31.6100 N.3   309  PHE309     -0.1241
      2  CA         7.8580   61.4020   32.3490 C.3   309  PHE309      0.1605
      3  C          7.8070   61.1260   33.8550 C.2   309  PHE309      0.2264
      4  O          7.6340   62.0500   34.6390 O.2   309  PHE309     -0.2867
      5  CB         6.4370   61.5680   31.7690 C.3   309  PHE309      0.0534
      6  CG         5.5190   60.4250   32.0940 C.ar  309  PHE309     -0.0203
      7  CD1        4.8430   60.3750   33.3250 C.ar  309  PHE309     -0.0042
      8  CD2        5.3410   59.3820   31.1890 C.ar  309  PHE309     -0.0042
      9  CE1        3.9910   59.2780   33.6430 C.ar  309  PHE309     -0.0003
     10  CE2        4.4920   58.2940   31.4990 C.ar  309  PHE309     -0.0003
     11  CZ         3.8220   58.2550   32.7330 C.ar  309  PHE309     -0.0000
     12  N         10.5250   63.2610   35.6990 N.3   312  ALA312     -0.1245
     13  CA        10.2980   64.4900   34.9430 C.3   312  ALA312      0.1562
     14  C         11.4840   65.4480   34.8120 C.2   312  ALA312      0.2260
     15  O         11.7160   65.9980   33.7370 O.2   312  ALA312     -0.2867
     16  CB         9.0910   65.2260   35.4730 C.3   312  ALA312      0.0290
     17  N         13.1380   66.0390   31.1320 N.3   316  LYS316     -0.1245
     18  CA        13.0940   67.3080   30.4140 C.3   316  LYS316      0.1561
     19  C         14.4720   67.7130   29.8820 C.2   316  LYS316      0.2260
     20  O         14.5710   68.2520   28.7790 O.2   316  LYS316     -0.2867
     21  CB        12.5180   68.4210   31.2960 C.3   316  LYS316      0.0271
     22  CG        10.9720   68.3910   31.3780 C.3   316  LYS316      0.0035
     23  CD        10.4100   69.4740   32.3220 C.3   316  LYS316      0.0206
     24  CE        10.4890   69.0360   33.7880 C.3   316  LYS316      0.1093
     25  NZ        10.0640   70.1110   34.7250 N.3   316  LYS316     -0.1314
     26  N         -0.6320   58.3230   32.0320 N.3   337  ARG337     -0.1245
     27  CA        -0.2890   57.7540   33.3320 C.3   337  ARG337      0.1563
     28  C         -1.0690   56.4480   33.5050 C.2   337  ARG337      0.2260
     29  O         -2.1960   56.3050   33.0070 O.2   337  ARG337     -0.2867
     30  CB        -0.6940   58.7340   34.4230 C.3   337  ARG337      0.0307
     31  CG         0.3560   59.0580   35.4350 C.3   337  ARG337      0.0489
     32  CD        -0.1130   60.1010   36.4730 C.3   337  ARG337      0.2205
     33  NE        -0.4560   61.3610   35.8160 N.pl3 337  ARG337     -0.0865
     34  CZ         0.4390   62.2900   35.4750 C.cat 337  ARG337      0.5346
     35  NH1        1.7310   62.1080   35.7540 N.pl3 337  ARG337      0.1354
     36  NH2        0.0440   63.4020   34.8590 N.pl3 337  ARG337      0.1354
     37  N         -2.2890   72.2080   30.4010 N.3   371  THR371     -0.1218
     38  CA        -1.9510   70.8030   30.6250 C.3   371  THR371      0.1862
     39  C         -3.1720   69.9170   30.3340 C.2   371  THR371      0.2287
     40  O         -4.2480   70.4310   30.0300 O.2   371  THR371     -0.2866
     41  CB        -1.4430   70.5600   32.0510 C.3   371  THR371      0.1770
     42  OG1       -2.4980   70.8310   32.9990 O.3   371  THR371     -0.2211
     43  CG2       -0.3190   71.5420   32.3870 C.3   371  THR371      0.0375
     44  N         -0.6890   62.4330   29.9860 N.3   377  VAL377     -0.1245
     45  CA         0.4850   63.1910   30.4600 C.3   377  VAL377      0.1561
     46  C          0.7600   64.4380   29.6000 C.2   377  VAL377      0.2260
     47  O          1.1220   65.5040   30.1180 O.2   377  VAL377     -0.2867
     48  CB         1.7410   62.2970   30.5250 C.3   377  VAL377      0.0252
     49  CG1        2.9890   63.1220   30.9000 C.3   377  VAL377      0.0019
     50  CG2        1.5410   61.1160   31.5390 C.3   377  VAL377      0.0019
     51  N          3.0600   69.1460   25.5900 N.3   381  ARG381     -0.1231
     52  CA         2.4950   70.4090   26.0620 C.3   381  ARG381      0.1694
     53  C          3.2800   70.9560   27.2810 C.2   381  ARG381      0.2592
     54  O          3.0090   72.0690   27.7430 O.2   381  ARG381     -0.2718
     55  CB         1.0130   70.2240   26.4570 C.3   381  ARG381      0.0321
     56  CG         0.0070   70.4000   25.3060 C.3   381  ARG381      0.0489
     57  CD        -1.4020   69.9580   25.6630 C.3   381  ARG381      0.2205
     58  NE        -2.3630   70.2300   24.5820 N.pl3 381  ARG381     -0.0865
     59  CZ        -3.0860   71.3390   24.4770 C.cat 381  ARG381      0.5346
     60  NH1       -2.9800   72.3000   25.3880 N.pl3 381  ARG381      0.1354
     61  NH2       -3.9280   71.4850   23.4550 N.pl3 381  ARG381      0.1354
     62  N          4.2190   70.1820   27.8250 N.am  382  TRP382     -0.1962
     63  CA         5.0820   70.7070   28.8970 C.3   382  TRP382      0.1771
     64  C          5.8600   71.8660   28.3100 C.2   382  TRP382      0.2619
     65  O          6.4910   71.7100   27.2380 O.2   382  TRP382     -0.2715
     66  CB         6.0720   69.6600   29.3930 C.3   382  TRP382      0.0590
     67  CG         5.4450   68.4730   30.1400 C.ar  382  TRP382      0.0006
     68  CD1        4.1030   68.1430   30.2450 C.ar  382  TRP382      0.0946
     69  CD2        6.1610   67.4660   30.8440 C.ar  382  TRP382      0.0152
     70  NE1        3.9570   66.9970   30.9920 N.ar  382  TRP382     -0.2442
     71  CE2        5.2040   66.5650   31.3860 C.ar  382  TRP382      0.0810
     72  CE3        7.5340   67.2510   31.1210 C.ar  382  TRP382      0.0012
     73  CZ2        5.5700   65.4580   32.1530 C.ar  382  TRP382      0.0191
     74  CZ3        7.8970   66.1460   31.8750 C.ar  382  TRP382      0.0001
     75  CH2        6.9090   65.2660   32.3930 C.ar  382  TRP382      0.0015
     76  N          5.8380   73.0180   28.9840 N.am  383  ARG383     -0.1963
     77  CA         6.4440   74.2110   28.4000 C.3   383  ARG383      0.1729
     78  C          7.8850   73.9400   27.9500 C.2   383  ARG383      0.2616
     79  O          8.2720   74.3000   26.8510 O.2   383  ARG383     -0.2715
     80  CB         6.4000   75.4090   29.3660 C.3   383  ARG383      0.0348
     81  CG         6.9350   76.7420   28.7580 C.3   383  ARG383      0.0492
     82  CD         7.2080   77.8420   29.8400 C.3   383  ARG383      0.2205
     83  NE         8.0950   77.2780   30.8450 N.pl3 383  ARG383     -0.0865
     84  CZ         7.7360   76.9420   32.0700 C.cat 383  ARG383      0.5346
     85  NH1        6.5000   77.1890   32.5120 N.pl3 383  ARG383      0.1354
     86  NH2        8.6210   76.3580   32.8580 N.pl3 383  ARG383      0.1354
     87  N          8.6640   73.2820   28.7980 N.am  384  GLN384     -0.1977
     88  CA        10.0760   73.0070   28.5110 C.3   384  GLN384      0.1601
     89  C         10.2650   72.2050   27.2190 C.2   384  GLN384      0.2287
     90  O         11.2600   72.3680   26.5310 O.2   384  GLN384     -0.2864
     91  CB        10.7360   72.2850   29.6890 C.3   384  GLN384      0.0394
     92  CG        10.6990   73.0530   31.0340 C.3   384  GLN384      0.0908
     93  CD         9.3910   72.8770   31.8420 C.2   384  GLN384      0.2608
     94  OE1        8.3250   72.5450   31.2930 O.2   384  GLN384     -0.2717
     95  NE2        9.4800   73.0950   33.1520 N.am  384  GLN384     -0.0878
     96  N         14.8660   73.3910   39.6850 N.3   478  GLU478     -0.1245
     97  CA        13.8530   72.4440   39.2200 C.3   478  GLU478      0.1567
     98  C         14.0730   72.0330   37.7490 C.2   478  GLU478      0.2260
     99  O         13.9120   70.8710   37.4160 O.2   478  GLU478     -0.2867
    100  CB        12.4630   73.0420   39.3840 C.3   478  GLU478      0.0388
    101  CG        11.5830   72.2990   40.3680 C.3   478  GLU478      0.1160
    102  CD        10.1190   72.4190   39.9700 C.2   478  GLU478      0.3649
    103  OE1        9.5420   73.4670   40.3090 O.co2 478  GLU478     -0.2457
    104  OE2        9.5610   71.4960   39.2940 O.co2 478  GLU478     -0.2457
@<TRIPOS>BOND
     1    61    59    1
     2    59    58    2
     3    59    60    1
     4    58    57    1
     5    56    57    1
     6    56    55    1
     7    51    52    1
     8    52    55    1
     9    52    53    1
    10    90    89    2
    11    79    78    2
    12    89    88    1
    13    65    64    2
    14    53    54    2
    15    53    62   am
    16    62    63    1
    17    78    77    1
    18    78    87   am
    19    64    63    1
    20    64    76   am
    21    77    76    1
    22    77    80    1
    23    88    87    1
    24    88    91    1
    25    81    80    1
    26    81    82    1
    27    20    19    2
    28    63    66    1
    29    66    67    1
    30    46    47    2
    31    46    45    1
    32    91    92    1
    33    82    83    1
    34    19    18    1
    35    44    45    1
    36    40    39    2
    37    67    68   ar
    38    67    69   ar
    39    68    70   ar
    40    39    38    1
    41    37    38    1
    42    18    17    1
    43    18    21    1
    44    45    48    1
    45    48    49    1
    46    48    50    1
    47    38    41    1
    48    69    72   ar
    49    69    71   ar
    50    83    84    2
    51    70    71   ar
    52    92    93    1
    53    72    74   ar
    54     8    10   ar
    55     8     6   ar
    56    94    93    2
    57    21    22    1
    58    22    23    1
    59    71    73   ar
    60    10    11   ar
    61     1     2    1
    62     5     6    1
    63     5     2    1
    64    93    95   am
    65    74    75   ar
    66    26    27    1
    67    41    43    1
    68    41    42    1
    69    84    85    1
    70    84    86    1
    71     6     7   ar
    72    73    75   ar
    73    23    24    1
    74     2     3    1
    75    11     9   ar
    76    29    28    2
    77     7     9   ar
    78    27    28    1
    79    27    30    1
    80    15    14    2
    81    24    25    1
    82     3     4    2
    83    30    31    1
    84    14    13    1
    85    36    34    1
    86    13    16    1
    87    13    12    1
    88    31    32    1
    89    34    35    1
    90    34    33    2
    91    33    32    1
    92    99    98    2
    93    98    97    1
    94    97   100    1
    95    97    96    1
    96   104   102   ar
    97   100   101    1
    98   102   103   ar
    99   102   101    1
