@<TRIPOS>MOLECULE
tmp/1mfvA02.pdb
 135 132 0 0 0
SMALL
GASTEIGER

@<TRIPOS>ATOM
      1  N         -2.8510   48.2900   26.3410 N.3    57  TRP57      -0.1227
      2  CA        -2.3920   49.0280   25.1650 C.3    57  TRP57       0.1737
      3  C         -1.9280   48.0420   24.0600 C.2    57  TRP57       0.2595
      4  O         -2.1060   48.3160   22.8590 O.2    57  TRP57      -0.2718
      5  CB        -1.2590   50.0150   25.5170 C.3    57  TRP57       0.0564
      6  CG        -0.0500   49.3070   26.0690 C.ar   57  TRP57       0.0003
      7  CD1        0.1870   49.0000   27.3860 C.ar   57  TRP57       0.0946
      8  CD2        1.0620   48.7740   25.3240 C.ar   57  TRP57       0.0152
      9  NE1        1.3760   48.3160   27.4990 N.ar   57  TRP57      -0.2442
     10  CE2        1.9340   48.1580   26.2550 C.ar   57  TRP57       0.0810
     11  CE3        1.4110   48.7590   23.9620 C.ar   57  TRP57       0.0012
     12  CZ2        3.1460   47.5380   25.8740 C.ar   57  TRP57       0.0191
     13  CZ3        2.5850   48.1270   23.5730 C.ar   57  TRP57       0.0001
     14  CH2        3.4580   47.5280   24.5360 C.ar   57  TRP57       0.0015
     15  N         -1.3600   46.8990   24.4510 N.am   58  TRP58      -0.1976
     16  CA        -0.7500   46.0010   23.4530 C.3    58  TRP58       0.1640
     17  C         -1.7200   45.1840   22.5870 C.2    58  TRP58       0.2290
     18  O         -1.3010   44.4880   21.6480 O.2    58  TRP58      -0.2864
     19  CB         0.4180   45.1580   24.0200 C.3    58  TRP58       0.0576
     20  CG         0.2040   44.4600   25.3530 C.ar   58  TRP58       0.0006
     21  CD1        0.7890   44.7900   26.5600 C.ar   58  TRP58       0.0946
     22  CD2       -0.5860   43.2810   25.6080 C.ar   58  TRP58       0.0152
     23  NE1        0.3700   43.9180   27.5420 N.ar   58  TRP58      -0.2442
     24  CE2       -0.4600   42.9770   26.9880 C.ar   58  TRP58       0.0810
     25  CE3       -1.4110   42.4660   24.8180 C.ar   58  TRP58       0.0012
     26  CZ2       -1.1180   41.8830   27.5900 C.ar   58  TRP58       0.0191
     27  CZ3       -2.0580   41.3720   25.4150 C.ar   58  TRP58       0.0001
     28  CH2       -1.9050   41.0950   26.7870 C.ar   58  TRP58       0.0015
     29  N         -1.4290   45.6600   18.8610 N.3    61  TYR61      -0.1241
     30  CA        -0.3910   44.9960   18.0920 C.3    61  TYR61       0.1605
     31  C         -0.7840   43.5590   17.7540 C.2    61  TYR61       0.2264
     32  O          0.0600   42.7390   17.3870 O.2    61  TYR61      -0.2867
     33  CB         0.9700   45.1380   18.7900 C.3    61  TYR61       0.0534
     34  CG         1.3760   46.5980   18.8170 C.ar   61  TYR61      -0.0201
     35  CD1        2.0430   47.1800   17.7340 C.ar   61  TYR61      -0.0009
     36  CD2        1.0350   47.4110   19.9060 C.ar   61  TYR61      -0.0009
     37  CE1        2.3810   48.5490   17.7530 C.ar   61  TYR61       0.0417
     38  CE2        1.3660   48.7680   19.9290 C.ar   61  TYR61       0.0417
     39  CZ         2.0380   49.3190   18.8670 C.ar   61  TYR61       0.1957
     40  OH         2.3450   50.6560   18.9240 O.3    61  TYR61      -0.2866
     41  N          2.5960   40.2760   11.3490 N.3   100  HIS100     -0.1241
     42  CA         1.8460   39.2540   12.0720 C.3   100  HIS100      0.1621
     43  C          0.3880   39.6090   12.2010 C.2   100  HIS100      0.2264
     44  O          0.0030   40.7680   12.0450 O.2   100  HIS100     -0.2867
     45  CB         2.4590   39.0160   13.4840 C.3   100  HIS100      0.0745
     46  CG         2.5980   40.2580   14.3180 C.ar  100  HIS100      0.0817
     47  ND1        3.7720   40.9800   14.3870 N.ar  100  HIS100     -0.2268
     48  CD2        1.7180   40.8910   15.1340 C.ar  100  HIS100      0.1154
     49  CE1        3.6080   42.0100   15.1980 C.ar  100  HIS100      0.1986
     50  NE2        2.3690   41.9830   15.6590 N.ar  100  HIS100     -0.2212
     51  N          6.8040   35.8000   16.7850 N.3   161  LEU161     -0.1245
     52  CA         7.1950   36.7220   17.8600 C.3   161  LEU161      0.1561
     53  C          6.2080   36.6080   19.0300 C.2   161  LEU161      0.2260
     54  O          5.0470   37.0290   18.9320 O.2   161  LEU161     -0.2867
     55  CB         7.2420   38.1670   17.3330 C.3   161  LEU161      0.0270
     56  CG         7.5210   39.3020   18.3340 C.3   161  LEU161      0.0019
     57  CD1        8.8660   39.1190   19.0260 C.3   161  LEU161      0.0001
     58  CD2        7.4160   40.6880   17.6610 C.3   161  LEU161      0.0001
     59  N          2.7520   35.4390   18.1970 N.3   164  LEU164     -0.1245
     60  CA         1.9860   36.1950   17.2000 C.3   164  LEU164      0.1561
     61  C          2.0590   35.5180   15.8330 C.2   164  LEU164      0.2260
     62  O          3.1510   35.3510   15.2730 O.2   164  LEU164     -0.2867
     63  CB         2.5060   37.6530   17.1070 C.3   164  LEU164      0.0270
     64  CG         2.2970   38.5220   18.3650 C.3   164  LEU164      0.0019
     65  CD1        3.1520   39.8070   18.3400 C.3   164  LEU164      0.0001
     66  CD2        0.8340   38.8690   18.5780 C.3   164  LEU164      0.0001
     67  N          5.6970   54.2020   10.5790 N.3   194  ARG194     -0.1245
     68  CA         6.5570   53.4860   11.5060 C.3   194  ARG194      0.1563
     69  C          6.3070   51.9870   11.2620 C.2   194  ARG194      0.2260
     70  O          5.1930   51.5140   11.4980 O.2   194  ARG194     -0.2867
     71  CB         6.2170   53.8530   12.9580 C.3   194  ARG194      0.0307
     72  CG         7.1060   53.1540   14.0050 C.3   194  ARG194      0.0489
     73  CD         6.2970   52.4520   15.0780 C.3   194  ARG194      0.2205
     74  NE         7.1320   51.7540   16.0480 N.pl3 194  ARG194     -0.0865
     75  CZ         6.8120   50.5920   16.6030 C.cat 194  ARG194      0.5346
     76  NH1        5.6790   49.9720   16.2560 N.pl3 194  ARG194      0.1354
     77  NH2        7.6420   50.0230   17.4790 N.pl3 194  ARG194      0.1354
     78  N          6.3130   48.5680   12.3730 N.3   196  ASP196     -0.1225
     79  CA         6.4040   47.7390   13.5710 C.3   196  ASP196      0.1805
     80  C          7.1810   46.4230   13.3300 C.2   196  ASP196      0.2597
     81  O          7.0560   45.8200   12.2680 O.2   196  ASP196     -0.2718
     82  CB         4.9890   47.4270   14.0570 C.3   196  ASP196      0.1424
     83  CG         4.9850   46.5330   15.2560 C.2   196  ASP196      0.3668
     84  OD1        5.5350   46.9760   16.2850 O.co2 196  ASP196     -0.2456
     85  OD2        4.4790   45.3830   15.2600 O.co2 196  ASP196     -0.2456
     86  N          7.9880   45.9940   14.3100 N.am  197  ALA197     -0.1979
     87  CA         8.6200   44.6630   14.2760 C.3   197  ALA197      0.1597
     88  C          9.4430   44.3890   13.0020 C.2   197  ALA197      0.2287
     89  O          9.4630   43.2580   12.5040 O.2   197  ALA197     -0.2864
     90  CB         7.5690   43.5470   14.4910 C.3   197  ALA197      0.0319
     91  N         11.1990   50.0100   13.0010 N.3   232  GLU232     -0.1245
     92  CA        11.5570   49.6430   14.3800 C.3   232  GLU232      0.1567
     93  C         12.4490   48.4040   14.3880 C.2   232  GLU232      0.2260
     94  O         11.9730   47.2680   14.1880 O.2   232  GLU232     -0.2867
     95  CB        10.3360   49.3840   15.2760 C.3   232  GLU232      0.0388
     96  CG        10.7490   49.0940   16.7330 C.3   232  GLU232      0.1160
     97  CD        10.0830   47.8620   17.3420 C.2   232  GLU232      0.3649
     98  OE1        9.5840   46.9730   16.6030 O.co2 232  GLU232     -0.2457
     99  OE2       10.0290   47.8020   18.5830 O.co2 232  GLU232     -0.2457
    100  N         15.3810   47.1000   17.1210 N.3   234  ILE234     -0.1245
    101  CA        16.1380   47.2690   18.3650 C.3   234  ILE234      0.1561
    102  C         17.5100   46.6180   18.1640 C.2   234  ILE234      0.2260
    103  O         17.6450   45.3850   18.2180 O.2   234  ILE234     -0.2867
    104  CB        15.3710   46.6370   19.5880 C.3   234  ILE234      0.0252
    105  CG1       13.9980   47.3090   19.7810 C.3   234  ILE234      0.0019
    106  CG2       16.2360   46.6770   20.8990 C.3   234  ILE234      0.0019
    107  CD1       13.0770   46.6000   20.7800 C.3   234  ILE234      0.0001
    108  N          6.9730   54.0470   23.3560 N.3   298  HIS298     -0.1226
    109  CA         5.8180   53.4780   24.0520 C.3   298  HIS298      0.1752
    110  C          6.1690   52.1500   24.7370 C.2   298  HIS298      0.2596
    111  O          5.5730   51.8030   25.7580 O.2   298  HIS298     -0.2718
    112  CB         4.6230   53.3140   23.0630 C.3   298  HIS298      0.0759
    113  CG         4.7970   52.1850   22.0940 C.ar  298  HIS298      0.0818
    114  ND1        5.4670   52.3220   20.8980 N.ar  298  HIS298     -0.2268
    115  CD2        4.4160   50.8860   22.1660 C.ar  298  HIS298      0.1154
    116  CE1        5.4820   51.1600   20.2680 C.ar  298  HIS298      0.1986
    117  NE2        4.8590   50.2700   21.0210 N.ar  298  HIS298     -0.2212
    118  N          7.1190   51.4110   24.1710 N.am  299  ASP299     -0.1974
    119  CA         7.6120   50.1680   24.7850 C.3   299  ASP299      0.1709
    120  C          8.5020   50.4410   25.9980 C.2   299  ASP299      0.2293
    121  O          8.1900   50.0260   27.1200 O.2   299  ASP299     -0.2864
    122  CB         8.4360   49.3430   23.7840 C.3   299  ASP299      0.1436
    123  CG         7.5840   48.4740   22.8690 C.2   299  ASP299      0.3671
    124  OD1        6.3870   48.2490   23.1500 O.co2 299  ASP299     -0.2456
    125  OD2        8.0640   47.9690   21.8260 O.co2 299  ASP299     -0.2456
    126  N          8.9650   47.4940   28.3870 N.3   304  HIS304     -0.1241
    127  CA         8.8540   46.5720   27.2440 C.3   304  HIS304      0.1621
    128  C         10.0210   46.7760   26.2580 C.2   304  HIS304      0.2264
    129  O         10.8070   47.7290   26.3810 O.2   304  HIS304     -0.2867
    130  CB         7.4970   46.7450   26.5300 C.3   304  HIS304      0.0745
    131  CG         6.3590   46.0390   27.2110 C.ar  304  HIS304      0.0817
    132  ND1        5.6850   44.9840   26.6330 N.ar  304  HIS304     -0.2268
    133  CD2        5.7770   46.2390   28.4170 C.ar  304  HIS304      0.1154
    134  CE1        4.7390   44.5600   27.4550 C.ar  304  HIS304      0.1986
    135  NE2        4.7680   45.3100   28.5430 N.ar  304  HIS304     -0.2212
@<TRIPOS>BOND
     1    67    68    1
     2    69    70    2
     3    69    68    1
     4    41    42    1
     5    68    71    1
     6    44    43    2
     7    42    43    1
     8    42    45    1
     9    81    80    2
    10    78    79    1
    11    89    88    2
    12    71    72    1
    13    91    92    1
    14    88    87    1
    15    80    79    1
    16    80    86   am
    17    45    46    1
    18    79    82    1
    19    72    73    1
    20    82    83    1
    21    94    93    2
    22    87    86    1
    23    87    90    1
    24    46    47   ar
    25    46    48   ar
    26    92    93    1
    27    92    95    1
    28    47    49   ar
    29    73    74    1
    30    48    50   ar
    31    49    50   ar
    32    83    85   ar
    33    83    84   ar
    34    62    61    2
    35    95    96    1
    36    61    60    1
    37    74    75    2
    38    76    75    1
    39    75    77    1
    40    98    97   ar
    41    96    97    1
    42    51    52    1
    43    63    60    1
    44    63    64    1
    45   100   101    1
    46    60    59    1
    47    55    52    1
    48    55    56    1
    49    97    99   ar
    50    32    31    2
    51    58    56    1
    52    35    37   ar
    53    35    34   ar
    54    37    39   ar
    55    31    30    1
    56    52    53    1
    57    30    33    1
    58    30    29    1
    59   102   103    2
    60   102   101    1
    61    56    57    1
    62    65    64    1
    63   101   104    1
    64    64    66    1
    65    33    34    1
    66    34    36   ar
    67    39    40    1
    68    39    38   ar
    69    54    53    2
    70   104   105    1
    71   104   106    1
    72   105   107    1
    73    36    38   ar
    74   116   114   ar
    75   116   117   ar
    76   114   113   ar
    77   117   115   ar
    78    18    17    2
    79   125   123   ar
    80   113   115   ar
    81   113   112    1
    82    17    16    1
    83     4     3    2
    84   123   124   ar
    85   123   122    1
    86   112   109    1
    87   108   109    1
    88    16    19    1
    89    16    15    1
    90    13    11   ar
    91    13    14   ar
    92   122   119    1
    93    11     8   ar
    94    19    20    1
    95   109   110    1
    96     3    15   am
    97     3     2    1
    98   118   110   am
    99   118   119    1
   100    14    12   ar
   101   110   111    2
   102   119   120    1
   103    25    27   ar
   104    25    22   ar
   105     2     5    1
   106     2     1    1
   107     8     6   ar
   108     8    10   ar
   109    20    22   ar
   110    20    21   ar
   111    27    28   ar
   112     5     6    1
   113    22    24   ar
   114    12    10   ar
   115   120   121    2
   116     6     7   ar
   117    10     9   ar
   118   128   129    2
   119   128   127    1
   120   130   131    1
   121   130   127    1
   122    21    23   ar
   123   132   131   ar
   124   132   134   ar
   125    28    26   ar
   126    24    23   ar
   127    24    26   ar
   128   131   133   ar
   129   127   126    1
   130     7     9   ar
   131   134   135   ar
   132   133   135   ar
