@<TRIPOS>MOLECULE
tmp/1mfvA01.pdb
 110 110 0 0 0
SMALL
GASTEIGER

@<TRIPOS>ATOM
      1  N         -2.8510   48.2900   26.3410 N.3    57  TRP57      -0.1227
      2  CA        -2.3920   49.0280   25.1650 C.3    57  TRP57       0.1737
      3  C         -1.9280   48.0420   24.0600 C.2    57  TRP57       0.2595
      4  O         -2.1060   48.3160   22.8590 O.2    57  TRP57      -0.2718
      5  CB        -1.2590   50.0150   25.5170 C.3    57  TRP57       0.0564
      6  CG        -0.0500   49.3070   26.0690 C.ar   57  TRP57       0.0003
      7  CD1        0.1870   49.0000   27.3860 C.ar   57  TRP57       0.0946
      8  CD2        1.0620   48.7740   25.3240 C.ar   57  TRP57       0.0152
      9  NE1        1.3760   48.3160   27.4990 N.ar   57  TRP57      -0.2442
     10  CE2        1.9340   48.1580   26.2550 C.ar   57  TRP57       0.0810
     11  CE3        1.4110   48.7590   23.9620 C.ar   57  TRP57       0.0012
     12  CZ2        3.1460   47.5380   25.8740 C.ar   57  TRP57       0.0191
     13  CZ3        2.5850   48.1270   23.5730 C.ar   57  TRP57       0.0001
     14  CH2        3.4580   47.5280   24.5360 C.ar   57  TRP57       0.0015
     15  N         -1.3600   46.8990   24.4510 N.am   58  TRP58      -0.1976
     16  CA        -0.7500   46.0010   23.4530 C.3    58  TRP58       0.1640
     17  C         -1.7200   45.1840   22.5870 C.2    58  TRP58       0.2290
     18  O         -1.3010   44.4880   21.6480 O.2    58  TRP58      -0.2864
     19  CB         0.4180   45.1580   24.0200 C.3    58  TRP58       0.0576
     20  CG         0.2040   44.4600   25.3530 C.ar   58  TRP58       0.0006
     21  CD1        0.7890   44.7900   26.5600 C.ar   58  TRP58       0.0946
     22  CD2       -0.5860   43.2810   25.6080 C.ar   58  TRP58       0.0152
     23  NE1        0.3700   43.9180   27.5420 N.ar   58  TRP58      -0.2442
     24  CE2       -0.4600   42.9770   26.9880 C.ar   58  TRP58       0.0810
     25  CE3       -1.4110   42.4660   24.8180 C.ar   58  TRP58       0.0012
     26  CZ2       -1.1180   41.8830   27.5900 C.ar   58  TRP58       0.0191
     27  CZ3       -2.0580   41.3720   25.4150 C.ar   58  TRP58       0.0001
     28  CH2       -1.9050   41.0950   26.7870 C.ar   58  TRP58       0.0015
     29  N         -1.4290   45.6600   18.8610 N.3    61  TYR61      -0.1227
     30  CA        -0.3910   44.9960   18.0920 C.3    61  TYR61       0.1736
     31  C         -0.7840   43.5590   17.7540 C.2    61  TYR61       0.2595
     32  O          0.0600   42.7390   17.3870 O.2    61  TYR61      -0.2718
     33  CB         0.9700   45.1380   18.7900 C.3    61  TYR61       0.0548
     34  CG         1.3760   46.5980   18.8170 C.ar   61  TYR61      -0.0200
     35  CD1        2.0430   47.1800   17.7340 C.ar   61  TYR61      -0.0009
     36  CD2        1.0350   47.4110   19.9060 C.ar   61  TYR61      -0.0009
     37  CE1        2.3810   48.5490   17.7530 C.ar   61  TYR61       0.0417
     38  CE2        1.3660   48.7680   19.9290 C.ar   61  TYR61       0.0417
     39  CZ         2.0380   49.3190   18.8670 C.ar   61  TYR61       0.1957
     40  OH         2.3450   50.6560   18.9240 O.3    61  TYR61      -0.2866
     41  N         -2.0840   43.2840   17.8360 N.am   62  GLN62      -0.1979
     42  CA        -2.6480   41.9930   17.3910 C.3    62  GLN62       0.1601
     43  C         -3.7520   42.2320   16.3230 C.2    62  GLN62       0.2287
     44  O         -4.9340   42.3350   16.6500 O.2    62  GLN62      -0.2864
     45  CB        -3.1570   41.2010   18.6080 C.3    62  GLN62       0.0394
     46  CG        -2.0420   40.9400   19.6480 C.3    62  GLN62       0.0908
     47  CD        -2.3460   39.8070   20.5940 C.2    62  GLN62       0.2608
     48  OE1       -3.0340   38.8500   20.2220 O.2    62  GLN62      -0.2717
     49  NE2       -1.8370   39.9040   21.8310 N.am   62  GLN62      -0.0878
     50  N         -2.2180   36.7600   18.4210 N.3   103  GLY103     -0.1225
     51  CA        -1.5800   35.6510   19.1210 C.3   103  GLY103      0.1811
     52  C         -2.2470   34.3230   18.7830 C.2   103  GLY103      0.2280
     53  O         -3.4850   34.2510   18.6660 O.2   103  GLY103     -0.2866
     54  N         -5.3400   33.1340   21.0660 N.3   106  VAL106     -0.1245
     55  CA        -6.5690   33.9150   21.1930 C.3   106  VAL106      0.1561
     56  C         -7.7640   33.0600   20.7180 C.2   106  VAL106      0.2260
     57  O         -7.6570   32.3370   19.7260 O.2   106  VAL106     -0.2867
     58  CB        -6.4870   35.2370   20.3790 C.3   106  VAL106      0.0252
     59  CG1       -7.7870   36.0470   20.4750 C.3   106  VAL106      0.0019
     60  CG2       -5.2980   36.0860   20.8450 C.3   106  VAL106      0.0019
     61  N          6.6740   36.0220   20.1340 N.3   162  SER162     -0.1202
     62  CA         5.8470   35.8110   21.3150 C.3   162  SER162      0.2020
     63  C          4.5020   35.1310   20.9670 C.2   162  SER162      0.2619
     64  O          3.4580   35.4480   21.5510 O.2   162  SER162     -0.2717
     65  CB         5.6360   37.1500   22.0390 C.3   162  SER162      0.2103
     66  OG         5.2410   36.9440   23.3760 O.3   162  SER162     -0.2182
     67  N          4.5300   34.2200   19.9950 N.am  163  GLY163     -0.1942
     68  CA         3.3370   33.5070   19.5620 C.3   163  GLY163      0.2014
     69  C          2.4040   34.2120   18.5860 C.2   163  GLY163      0.2638
     70  O          1.3560   33.6570   18.2130 O.2   163  GLY163     -0.2714
     71  N          2.7520   35.4390   18.1970 N.am  164  LEU164     -0.1977
     72  CA         1.9860   36.1950   17.2000 C.3   164  LEU164      0.1596
     73  C          2.0590   35.5180   15.8330 C.2   164  LEU164      0.2287
     74  O          3.1510   35.3510   15.2730 O.2   164  LEU164     -0.2864
     75  CB         2.5060   37.6530   17.1070 C.3   164  LEU164      0.0297
     76  CG         2.2970   38.5220   18.3650 C.3   164  LEU164      0.0022
     77  CD1        3.1520   39.8070   18.3400 C.3   164  LEU164      0.0001
     78  CD2        0.8340   38.8690   18.5780 C.3   164  LEU164      0.0001
     79  N          6.9730   54.0470   23.3560 N.3   298  HIS298     -0.1226
     80  CA         5.8180   53.4780   24.0520 C.3   298  HIS298      0.1752
     81  C          6.1690   52.1500   24.7370 C.2   298  HIS298      0.2596
     82  O          5.5730   51.8030   25.7580 O.2   298  HIS298     -0.2718
     83  CB         4.6230   53.3140   23.0630 C.3   298  HIS298      0.0759
     84  CG         4.7970   52.1850   22.0940 C.ar  298  HIS298      0.0818
     85  ND1        5.4670   52.3220   20.8980 N.ar  298  HIS298     -0.2268
     86  CD2        4.4160   50.8860   22.1660 C.ar  298  HIS298      0.1154
     87  CE1        5.4820   51.1600   20.2680 C.ar  298  HIS298      0.1986
     88  NE2        4.8590   50.2700   21.0210 N.ar  298  HIS298     -0.2212
     89  N          7.1190   51.4110   24.1710 N.am  299  ASP299     -0.1974
     90  CA         7.6120   50.1680   24.7850 C.3   299  ASP299      0.1709
     91  C          8.5020   50.4410   25.9980 C.2   299  ASP299      0.2293
     92  O          8.1900   50.0260   27.1200 O.2   299  ASP299     -0.2864
     93  CB         8.4360   49.3430   23.7840 C.3   299  ASP299      0.1436
     94  CG         7.5840   48.4740   22.8690 C.2   299  ASP299      0.3671
     95  OD1        6.3870   48.2490   23.1500 O.co2 299  ASP299     -0.2456
     96  OD2        8.0640   47.9690   21.8260 O.co2 299  ASP299     -0.2456
     97  N          8.9650   47.4940   28.3870 N.3   304  HIS304     -0.1226
     98  CA         8.8540   46.5720   27.2440 C.3   304  HIS304      0.1752
     99  C         10.0210   46.7760   26.2580 C.2   304  HIS304      0.2596
    100  O         10.8070   47.7290   26.3810 O.2   304  HIS304     -0.2718
    101  CB         7.4970   46.7450   26.5300 C.3   304  HIS304      0.0759
    102  CG         6.3590   46.0390   27.2110 C.ar  304  HIS304      0.0818
    103  ND1        5.6850   44.9840   26.6330 N.ar  304  HIS304     -0.2268
    104  CD2        5.7770   46.2390   28.4170 C.ar  304  HIS304      0.1154
    105  CE1        4.7390   44.5600   27.4550 C.ar  304  HIS304      0.1986
    106  NE2        4.7680   45.3100   28.5430 N.ar  304  HIS304     -0.2212
    107  N         10.1220   45.8790   25.2830 N.am  305  GLY305     -0.1957
    108  CA        11.1770   45.9090   24.2890 C.3   305  GLY305      0.1869
    109  C         12.5000   45.6420   24.9570 C.2   305  GLY305      0.2309
    110  O         12.6280   44.7200   25.7730 O.2   305  GLY305     -0.2863
@<TRIPOS>BOND
     1    74    73    2
     2    73    72    1
     3    43    44    2
     4    43    42    1
     5    75    72    1
     6    75    76    1
     7    72    71    1
     8    32    31    2
     9    42    41    1
    10    42    45    1
    11    35    37   ar
    12    35    34   ar
    13    37    39   ar
    14    31    41   am
    15    31    30    1
    16    30    33    1
    17    30    29    1
    18    71    69   am
    19    70    69    2
    20    77    76    1
    21    76    78    1
    22    50    51    1
    23    69    68    1
    24    45    46    1
    25    53    52    2
    26    52    51    1
    27    33    34    1
    28    34    36   ar
    29    39    40    1
    30    39    38   ar
    31    68    67    1
    32    46    47    1
    33    57    56    2
    34    36    38   ar
    35    67    63   am
    36    61    62    1
    37    48    47    2
    38    87    85   ar
    39    87    88   ar
    40    58    59    1
    41    58    60    1
    42    58    55    1
    43    47    49   am
    44    56    55    1
    45    85    84   ar
    46    63    62    1
    47    63    64    2
    48    88    86   ar
    49    54    55    1
    50    62    65    1
    51    18    17    2
    52    96    94   ar
    53    65    66    1
    54    84    86   ar
    55    84    83    1
    56    17    16    1
    57     4     3    2
    58    94    95   ar
    59    94    93    1
    60    83    80    1
    61    79    80    1
    62    16    19    1
    63    16    15    1
    64    13    11   ar
    65    13    14   ar
    66    93    90    1
    67    11     8   ar
    68    19    20    1
    69    80    81    1
    70     3    15   am
    71     3     2    1
    72    89    81   am
    73    89    90    1
    74   108   109    1
    75   108   107    1
    76    14    12   ar
    77    81    82    2
    78    90    91    1
    79    25    27   ar
    80    25    22   ar
    81   109   110    2
    82     2     5    1
    83     2     1    1
    84   107    99   am
    85     8     6   ar
    86     8    10   ar
    87    20    22   ar
    88    20    21   ar
    89    27    28   ar
    90     5     6    1
    91    22    24   ar
    92    12    10   ar
    93    91    92    2
    94     6     7   ar
    95    10     9   ar
    96    99   100    2
    97    99    98    1
    98   101   102    1
    99   101    98    1
   100    21    23   ar
   101   103   102   ar
   102   103   105   ar
   103    28    26   ar
   104    24    23   ar
   105    24    26   ar
   106   102   104   ar
   107    98    97    1
   108     7     9   ar
   109   105   106   ar
   110   104   106   ar
