@<TRIPOS>MOLECULE
tmp/1mfvA03.pdb
 148 142 0 0 0
SMALL
GASTEIGER

@<TRIPOS>ATOM
      1  N         -2.8510   48.2900   26.3410 N.3    57  TRP57      -0.1241
      2  CA        -2.3920   49.0280   25.1650 C.3    57  TRP57       0.1605
      3  C         -1.9280   48.0420   24.0600 C.2    57  TRP57       0.2264
      4  O         -2.1060   48.3160   22.8590 O.2    57  TRP57      -0.2867
      5  CB        -1.2590   50.0150   25.5170 C.3    57  TRP57       0.0550
      6  CG        -0.0500   49.3070   26.0690 C.ar   57  TRP57       0.0003
      7  CD1        0.1870   49.0000   27.3860 C.ar   57  TRP57       0.0946
      8  CD2        1.0620   48.7740   25.3240 C.ar   57  TRP57       0.0152
      9  NE1        1.3760   48.3160   27.4990 N.ar   57  TRP57      -0.2442
     10  CE2        1.9340   48.1580   26.2550 C.ar   57  TRP57       0.0810
     11  CE3        1.4110   48.7590   23.9620 C.ar   57  TRP57       0.0012
     12  CZ2        3.1460   47.5380   25.8740 C.ar   57  TRP57       0.0191
     13  CZ3        2.5850   48.1270   23.5730 C.ar   57  TRP57       0.0001
     14  CH2        3.4580   47.5280   24.5360 C.ar   57  TRP57       0.0015
     15  N         17.5930   34.7300   19.6400 N.3   150  TYR150     -0.1241
     16  CA        17.8960   35.8520   18.7470 C.3   150  TYR150      0.1605
     17  C         19.2530   35.7340   18.0520 C.2   150  TYR150      0.2264
     18  O         19.5710   36.5430   17.1770 O.2   150  TYR150     -0.2867
     19  CB        17.7540   37.2050   19.4750 C.3   150  TYR150      0.0534
     20  CG        16.3290   37.7040   19.5250 C.ar  150  TYR150     -0.0201
     21  CD1       15.4180   37.1790   20.4500 C.ar  150  TYR150     -0.0009
     22  CD2       15.8830   38.6930   18.6490 C.ar  150  TYR150     -0.0009
     23  CE1       14.0810   37.6390   20.4960 C.ar  150  TYR150      0.0417
     24  CE2       14.5510   39.1640   18.6840 C.ar  150  TYR150      0.0417
     25  CZ        13.6640   38.6350   19.6080 C.ar  150  TYR150      0.1957
     26  OH        12.3590   39.0760   19.6460 O.3   150  TYR150     -0.2866
     27  N          6.8040   35.8000   16.7850 N.3   161  LEU161     -0.1245
     28  CA         7.1950   36.7220   17.8600 C.3   161  LEU161      0.1561
     29  C          6.2080   36.6080   19.0300 C.2   161  LEU161      0.2260
     30  O          5.0470   37.0290   18.9320 O.2   161  LEU161     -0.2867
     31  CB         7.2420   38.1670   17.3330 C.3   161  LEU161      0.0270
     32  CG         7.5210   39.3020   18.3340 C.3   161  LEU161      0.0019
     33  CD1        8.8660   39.1190   19.0260 C.3   161  LEU161      0.0001
     34  CD2        7.4160   40.6880   17.6610 C.3   161  LEU161      0.0001
     35  N          5.6970   54.2020   10.5790 N.3   194  ARG194     -0.1245
     36  CA         6.5570   53.4860   11.5060 C.3   194  ARG194      0.1563
     37  C          6.3070   51.9870   11.2620 C.2   194  ARG194      0.2260
     38  O          5.1930   51.5140   11.4980 O.2   194  ARG194     -0.2867
     39  CB         6.2170   53.8530   12.9580 C.3   194  ARG194      0.0307
     40  CG         7.1060   53.1540   14.0050 C.3   194  ARG194      0.0489
     41  CD         6.2970   52.4520   15.0780 C.3   194  ARG194      0.2205
     42  NE         7.1320   51.7540   16.0480 N.pl3 194  ARG194     -0.0865
     43  CZ         6.8120   50.5920   16.6030 C.cat 194  ARG194      0.5346
     44  NH1        5.6790   49.9720   16.2560 N.pl3 194  ARG194      0.1354
     45  NH2        7.6420   50.0230   17.4790 N.pl3 194  ARG194      0.1354
     46  N          6.3130   48.5680   12.3730 N.3   196  ASP196     -0.1225
     47  CA         6.4040   47.7390   13.5710 C.3   196  ASP196      0.1805
     48  C          7.1810   46.4230   13.3300 C.2   196  ASP196      0.2597
     49  O          7.0560   45.8200   12.2680 O.2   196  ASP196     -0.2718
     50  CB         4.9890   47.4270   14.0570 C.3   196  ASP196      0.1424
     51  CG         4.9850   46.5330   15.2560 C.2   196  ASP196      0.3668
     52  OD1        5.5350   46.9760   16.2850 O.co2 196  ASP196     -0.2456
     53  OD2        4.4790   45.3830   15.2600 O.co2 196  ASP196     -0.2456
     54  N          7.9880   45.9940   14.3100 N.am  197  ALA197     -0.1979
     55  CA         8.6200   44.6630   14.2760 C.3   197  ALA197      0.1597
     56  C          9.4430   44.3890   13.0020 C.2   197  ALA197      0.2287
     57  O          9.4630   43.2580   12.5040 O.2   197  ALA197     -0.2864
     58  CB         7.5690   43.5470   14.4910 C.3   197  ALA197      0.0319
     59  N         12.6070   43.9990   12.5220 N.3   199  LYS199     -0.1231
     60  CA        13.6280   42.9600   12.6990 C.3   199  LYS199      0.1693
     61  C         13.0720   41.5740   12.3500 C.2   199  LYS199      0.2592
     62  O         13.8160   40.6640   11.9530 O.2   199  LYS199     -0.2718
     63  CB        14.1670   42.9690   14.1570 C.3   199  LYS199      0.0285
     64  CG        15.2630   41.8980   14.4570 C.3   199  LYS199      0.0035
     65  CD        15.5660   41.8120   15.9750 C.3   199  LYS199      0.0206
     66  CE        16.5430   42.9020   16.3900 C.3   199  LYS199      0.1093
     67  NZ        16.9110   42.8560   17.8270 N.3   199  LYS199     -0.1314
     68  N         11.7590   41.4230   12.5070 N.am  200  HIS200     -0.1976
     69  CA        11.0730   40.1390   12.3010 C.3   200  HIS200      0.1656
     70  C         10.6710   39.8830   10.8620 C.2   200  HIS200      0.2291
     71  O         10.0180   38.8830   10.5370 O.2   200  HIS200     -0.2864
     72  CB         9.9380   40.0160   13.3060 C.3   200  HIS200      0.0771
     73  CG        10.4430   40.1540   14.6960 C.ar  200  HIS200      0.0820
     74  ND1       11.0160   39.1010   15.3710 N.ar  200  HIS200     -0.2267
     75  CD2       10.6430   41.2530   15.4680 C.ar  200  HIS200      0.1154
     76  CE1       11.4700   39.5260   16.5380 C.ar  200  HIS200      0.1986
     77  NE2       11.2600   40.8300   16.6180 N.ar  200  HIS200     -0.2212
     78  N         11.1990   50.0100   13.0010 N.3   232  GLU232     -0.1245
     79  CA        11.5570   49.6430   14.3800 C.3   232  GLU232      0.1567
     80  C         12.4490   48.4040   14.3880 C.2   232  GLU232      0.2260
     81  O         11.9730   47.2680   14.1880 O.2   232  GLU232     -0.2867
     82  CB        10.3360   49.3840   15.2760 C.3   232  GLU232      0.0388
     83  CG        10.7490   49.0940   16.7330 C.3   232  GLU232      0.1160
     84  CD        10.0830   47.8620   17.3420 C.2   232  GLU232      0.3649
     85  OE1        9.5840   46.9730   16.6030 O.co2 232  GLU232     -0.2457
     86  OE2       10.0290   47.8020   18.5830 O.co2 232  GLU232     -0.2457
     87  N         15.3810   47.1000   17.1210 N.3   234  ILE234     -0.1245
     88  CA        16.1380   47.2690   18.3650 C.3   234  ILE234      0.1561
     89  C         17.5100   46.6180   18.1640 C.2   234  ILE234      0.2260
     90  O         17.6450   45.3850   18.2180 O.2   234  ILE234     -0.2867
     91  CB        15.3710   46.6370   19.5880 C.3   234  ILE234      0.0252
     92  CG1       13.9980   47.3090   19.7810 C.3   234  ILE234      0.0019
     93  CG2       16.2360   46.6770   20.8990 C.3   234  ILE234      0.0019
     94  CD1       13.0770   46.6000   20.7800 C.3   234  ILE234      0.0001
     95  N         21.1120   46.8980   19.8040 N.3   236  LEU236     -0.1245
     96  CA        21.9890   47.3960   20.8460 C.3   236  LEU236      0.1561
     97  C         23.3720   46.7730   20.7030 C.2   236  LEU236      0.2260
     98  O         24.2120   46.9120   21.5870 O.2   236  LEU236     -0.2867
     99  CB        21.3830   47.0530   22.2100 C.3   236  LEU236      0.0270
    100  CG        20.5600   48.1180   22.9480 C.3   236  LEU236      0.0019
    101  CD1       20.1890   49.3170   22.0780 C.3   236  LEU236      0.0001
    102  CD2       19.3490   47.5180   23.6270 C.3   236  LEU236      0.0001
    103  N         23.9200   41.0620   18.2740 N.3   239  GLU239     -0.1245
    104  CA        22.9980   40.1450   17.6040 C.3   239  GLU239      0.1567
    105  C         23.3890   40.0920   16.1380 C.2   239  GLU239      0.2260
    106  O         23.9920   41.0430   15.6460 O.2   239  GLU239     -0.2867
    107  CB        21.5420   40.6170   17.7320 C.3   239  GLU239      0.0388
    108  CG        20.8900   40.3210   19.0840 C.3   239  GLU239      0.1160
    109  CD        19.4180   40.7410   19.1720 C.2   239  GLU239      0.3649
    110  OE1       18.7600   40.9480   18.1210 O.co2 239  GLU239     -0.2457
    111  OE2       18.9000   40.8510   20.3050 O.co2 239  GLU239     -0.2457
    112  N          6.9730   54.0470   23.3560 N.3   298  HIS298     -0.1226
    113  CA         5.8180   53.4780   24.0520 C.3   298  HIS298      0.1752
    114  C          6.1690   52.1500   24.7370 C.2   298  HIS298      0.2596
    115  O          5.5730   51.8030   25.7580 O.2   298  HIS298     -0.2718
    116  CB         4.6230   53.3140   23.0630 C.3   298  HIS298      0.0759
    117  CG         4.7970   52.1850   22.0940 C.ar  298  HIS298      0.0818
    118  ND1        5.4670   52.3220   20.8980 N.ar  298  HIS298     -0.2268
    119  CD2        4.4160   50.8860   22.1660 C.ar  298  HIS298      0.1154
    120  CE1        5.4820   51.1600   20.2680 C.ar  298  HIS298      0.1986
    121  NE2        4.8590   50.2700   21.0210 N.ar  298  HIS298     -0.2212
    122  N          7.1190   51.4110   24.1710 N.am  299  ASP299     -0.1974
    123  CA         7.6120   50.1680   24.7850 C.3   299  ASP299      0.1709
    124  C          8.5020   50.4410   25.9980 C.2   299  ASP299      0.2293
    125  O          8.1900   50.0260   27.1200 O.2   299  ASP299     -0.2864
    126  CB         8.4360   49.3430   23.7840 C.3   299  ASP299      0.1436
    127  CG         7.5840   48.4740   22.8690 C.2   299  ASP299      0.3671
    128  OD1        6.3870   48.2490   23.1500 O.co2 299  ASP299     -0.2456
    129  OD2        8.0640   47.9690   21.8260 O.co2 299  ASP299     -0.2456
    130  N          8.9650   47.4940   28.3870 N.3   304  HIS304     -0.1226
    131  CA         8.8540   46.5720   27.2440 C.3   304  HIS304      0.1752
    132  C         10.0210   46.7760   26.2580 C.2   304  HIS304      0.2597
    133  O         10.8070   47.7290   26.3810 O.2   304  HIS304     -0.2718
    134  CB         7.4970   46.7450   26.5300 C.3   304  HIS304      0.0759
    135  CG         6.3590   46.0390   27.2110 C.ar  304  HIS304      0.0818
    136  ND1        5.6850   44.9840   26.6330 N.ar  304  HIS304     -0.2268
    137  CD2        5.7770   46.2390   28.4170 C.ar  304  HIS304      0.1154
    138  CE1        4.7390   44.5600   27.4550 C.ar  304  HIS304      0.1986
    139  NE2        4.7680   45.3100   28.5430 N.ar  304  HIS304     -0.2212
    140  N         10.1220   45.8790   25.2830 N.am  305  GLY305     -0.1942
    141  CA        11.1770   45.9090   24.2890 C.3   305  GLY305      0.2014
    142  C         12.5000   45.6420   24.9570 C.2   305  GLY305      0.2638
    143  O         12.6280   44.7200   25.7730 O.2   305  GLY305     -0.2714
    144  N         13.4830   46.4690   24.6490 N.am  306  ALA306     -0.1977
    145  CA        14.7830   46.3150   25.2780 C.3   306  ALA306      0.1597
    146  C         14.7330   46.7820   26.7250 C.2   306  ALA306      0.2287
    147  O         15.6220   46.4330   27.5250 O.2   306  ALA306     -0.2864
    148  CB        15.8330   47.0890   24.5120 C.3   306  ALA306      0.0319
@<TRIPOS>BOND
     1    71    70    2
     2    35    36    1
     3    70    69    1
     4    37    38    2
     5    37    36    1
     6    36    39    1
     7    62    61    2
     8    49    48    2
     9    69    68    1
    10    69    72    1
    11    61    68   am
    12    61    60    1
    13    46    47    1
    14    57    56    2
    15    59    60    1
    16    60    63    1
    17    39    40    1
    18    78    79    1
    19    56    55    1
    20    72    73    1
    21    48    47    1
    22    48    54   am
    23    47    50    1
    24    40    41    1
    25    50    51    1
    26    63    64    1
    27    81    80    2
    28    55    54    1
    29    55    58    1
    30    79    80    1
    31    79    82    1
    32    64    65    1
    33    73    74   ar
    34    73    75   ar
    35    41    42    1
    36    51    53   ar
    37    51    52   ar
    38    82    83    1
    39    74    76   ar
    40    75    77   ar
    41   106   105    2
    42    65    66    1
    43    42    43    2
    44   105   104    1
    45    44    43    1
    46    66    67    1
    47    76    77   ar
    48    85    84   ar
    49    43    45    1
    50    83    84    1
    51    27    28    1
    52    87    88    1
    53    18    17    2
    54    31    28    1
    55    31    32    1
    56    84    86   ar
    57   104   107    1
    58   104   103    1
    59    34    32    1
    60   107   108    1
    61    28    29    1
    62    17    16    1
    63   110   109   ar
    64    89    90    2
    65    89    88    1
    66    32    33    1
    67    88    91    1
    68    22    24   ar
    69    22    20   ar
    70    24    25   ar
    71    16    19    1
    72    16    15    1
    73    30    29    2
    74   108   109    1
    75   109   111   ar
    76    19    20    1
    77    20    21   ar
    78    91    92    1
    79    91    93    1
    80    25    26    1
    81    25    23   ar
    82    92    94    1
    83    95    96    1
    84   120   118   ar
    85   120   121   ar
    86    21    23   ar
    87    97    96    1
    88    97    98    2
    89    96    99    1
    90   118   117   ar
    91   121   119   ar
    92   129   127   ar
    93   101   100    1
    94   117   119   ar
    95   117   116    1
    96    99   100    1
    97     4     3    2
    98   127   128   ar
    99   127   126    1
   100   100   102    1
   101   116   113    1
   102   112   113    1
   103    13    11   ar
   104    13    14   ar
   105   126   123    1
   106    11     8   ar
   107   113   114    1
   108     3     2    1
   109   122   114   am
   110   122   123    1
   111   141   142    1
   112   141   140    1
   113   148   145    1
   114    14    12   ar
   115   144   142   am
   116   144   145    1
   117   114   115    2
   118   123   124    1
   119   142   143    2
   120     2     5    1
   121     2     1    1
   122   145   146    1
   123   140   132   am
   124     8     6   ar
   125     8    10   ar
   126     5     6    1
   127    12    10   ar
   128   124   125    2
   129     6     7   ar
   130    10     9   ar
   131   132   133    2
   132   132   131    1
   133   134   135    1
   134   134   131    1
   135   136   135   ar
   136   136   138   ar
   137   146   147    2
   138   135   137   ar
   139   131   130    1
   140     7     9   ar
   141   138   139   ar
   142   137   139   ar
