@<TRIPOS>MOLECULE
tmp/1mg0D01.pdb
 113 106 0 0 0
SMALL
GASTEIGER

@<TRIPOS>ATOM
      1  N         38.8380   -1.2330   51.6150 N.3    48  SER48      -0.1217
      2  CA        38.1170   -1.2640   52.9040 C.3    48  SER48       0.1889
      3  C         38.2250   -2.6070   53.6040 C.2    48  SER48       0.2288
      4  O         38.2350   -2.6620   54.8480 O.2    48  SER48      -0.2866
      5  CB        36.6420   -0.8820   52.7780 C.3    48  SER48       0.2089
      6  OG        36.4960    0.4500   52.3120 O.3    48  SER48      -0.2183
      7  N         39.7050    0.2710   59.9270 N.3    57  LEU57      -0.1245
      8  CA        38.2620    0.1860   60.0770 C.3    57  LEU57       0.1561
      9  C         37.9050   -0.8280   61.1380 C.2    57  LEU57       0.2260
     10  O         38.2510   -2.0030   61.0280 O.2    57  LEU57      -0.2867
     11  CB        37.6210   -0.1760   58.7380 C.3    57  LEU57       0.0270
     12  CG        36.1120   -0.3800   58.7260 C.3    57  LEU57       0.0019
     13  CD1       35.4100    0.9590   58.8850 C.3    57  LEU57       0.0001
     14  CD2       35.7350   -1.0820   57.4150 C.3    57  LEU57       0.0001
     15  N         32.7850   -7.4970   50.9670 N.3    67  HIS67      -0.1241
     16  CA        31.5190   -6.7730   50.7980 C.3    67  HIS67       0.1621
     17  C         31.2200   -6.3900   49.3410 C.2    67  HIS67       0.2264
     18  O         30.1910   -5.7580   49.0660 O.2    67  HIS67      -0.2867
     19  CB        31.5480   -5.4970   51.6600 C.3    67  HIS67       0.0745
     20  CG        32.6520   -4.5620   51.2770 C.ar   67  HIS67       0.0817
     21  ND1       33.9760   -4.7930   51.5980 N.ar   67  HIS67      -0.2268
     22  CD2       32.6280   -3.4050   50.5780 C.ar   67  HIS67       0.1154
     23  CE1       34.7180   -3.8190   51.1060 C.ar   67  HIS67       0.1986
     24  NE2       33.9230   -2.9610   50.4900 N.ar   67  HIS67      -0.2212
     25  N         26.2550   -3.7490   51.0100 N.3    93  PHE93      -0.1241
     26  CA        26.8860   -3.4310   52.2980 C.3    93  PHE93       0.1605
     27  C         26.2220   -2.2510   52.9770 C.2    93  PHE93       0.2264
     28  O         26.3230   -2.0840   54.1910 O.2    93  PHE93      -0.2867
     29  CB        28.4160   -3.2380   52.1860 C.3    93  PHE93       0.0534
     30  CG        28.8290   -1.9500   51.5370 C.ar   93  PHE93      -0.0203
     31  CD1       28.9900   -0.7940   52.2960 C.ar   93  PHE93      -0.0042
     32  CD2       29.1330   -1.9140   50.1810 C.ar   93  PHE93      -0.0042
     33  CE1       29.3960    0.4200   51.6880 C.ar   93  PHE93      -0.0003
     34  CE2       29.5630   -0.7340   49.5620 C.ar   93  PHE93      -0.0003
     35  CZ        29.6780    0.4500   50.3260 C.ar   93  PHE93      -0.0000
     36  N         27.5120   -0.0200   59.8120 N.3   116  LEU116     -0.1245
     37  CA        28.7750    0.6960   59.6270 C.3   116  LEU116      0.1561
     38  C         29.0590    1.6890   60.7630 C.2   116  LEU116      0.2260
     39  O         30.2060    1.8160   61.1920 O.2   116  LEU116     -0.2867
     40  CB        28.8080    1.4150   58.2570 C.3   116  LEU116      0.0270
     41  CG        29.9840    2.4020   58.0990 C.3   116  LEU116      0.0019
     42  CD1       31.2850    1.6260   58.0230 C.3   116  LEU116      0.0001
     43  CD2       29.8430    3.3620   56.9100 C.3   116  LEU116      0.0001
     44  N         30.1990   -9.0790   58.3990 N.3   140  PHE140     -0.1227
     45  CA        30.7960   -7.7960   58.0930 C.3   140  PHE140      0.1736
     46  C         29.8490   -7.0030   57.2040 C.2   140  PHE140      0.2595
     47  O         29.5860   -7.4130   56.0600 O.2   140  PHE140     -0.2718
     48  CB        32.1490   -8.0030   57.4070 C.3   140  PHE140      0.0547
     49  CG        32.8280   -6.7210   56.9910 C.ar  140  PHE140     -0.0202
     50  CD1       33.1490   -5.7450   57.9280 C.ar  140  PHE140     -0.0042
     51  CD2       33.1520   -6.4940   55.6420 C.ar  140  PHE140     -0.0042
     52  CE1       33.7760   -4.5570   57.5320 C.ar  140  PHE140     -0.0003
     53  CE2       33.7790   -5.3330   55.2390 C.ar  140  PHE140     -0.0003
     54  CZ        34.1000   -4.3500   56.1920 C.ar  140  PHE140     -0.0000
     55  N         29.3570   -5.8780   57.7360 N.am  141  LEU141     -0.1980
     56  CA        28.4120   -4.9800   57.0320 C.3   141  LEU141      0.1596
     57  C         27.1890   -5.7350   56.4830 C.2   141  LEU141      0.2287
     58  O         26.6410   -5.3780   55.4330 O.2   141  LEU141     -0.2864
     59  CB        29.1100   -4.2120   55.8930 C.3   141  LEU141      0.0297
     60  CG        30.3900   -3.4680   56.2810 C.3   141  LEU141      0.0022
     61  CD1       31.0880   -2.9420   55.0310 C.3   141  LEU141      0.0001
     62  CD2       30.1050   -2.3640   57.2840 C.3   141  LEU141      0.0001
     63  N         30.5970   -2.3950   45.1340 N.3   174  CYS174     -0.1235
     64  CA        31.2730   -1.3800   45.9150 C.3   174  CYS174      0.1677
     65  C         32.0540   -0.3800   45.0960 C.2   174  CYS174      0.2270
     66  O         31.5920    0.7390   44.9300 O.2   174  CYS174     -0.2867
     67  CB        32.1970   -1.9890   46.9940 C.3   174  CYS174      0.0956
     68  SG        32.8670   -0.6390   47.9920 S.3   174  CYS174     -0.0801
     69  N         30.5860    3.3360   43.9460 N.3   178  THR178     -0.1218
     70  CA        31.0520    4.3660   44.8660 C.3   178  THR178      0.1862
     71  C         31.7400    5.5130   44.1360 C.2   178  THR178      0.2287
     72  O         31.4180    6.6840   44.3630 O.2   178  THR178     -0.2866
     73  CB        32.0170    3.7590   45.9140 C.3   178  THR178      0.1770
     74  OG1       31.3110    2.8500   46.7770 O.3   178  THR178     -0.2211
     75  CG2       32.5600    4.8700   46.8470 C.3   178  THR178      0.0375
     76  N         35.6200   10.5230   49.9630 N.3   292  VAL292     -0.1245
     77  CA        35.1860    9.1640   49.6350 C.3   292  VAL292      0.1561
     78  C         36.0350    8.1650   50.4430 C.2   292  VAL292      0.2260
     79  O         35.5530    7.1260   50.8700 O.2   292  VAL292     -0.2867
     80  CB        35.3450    8.8860   48.1110 C.3   292  VAL292      0.0252
     81  CG1       34.8500    7.4760   47.7620 C.3   292  VAL292      0.0019
     82  CG2       34.5790    9.9150   47.2920 C.3   292  VAL292      0.0019
     83  N         38.1200    6.2070   53.3800 N.3   294  VAL294     -0.1245
     84  CA        37.8660    5.8950   54.7900 C.3   294  VAL294      0.1561
     85  C         39.1170    6.1260   55.6360 C.2   294  VAL294      0.2260
     86  O         40.1070    5.4690   55.4270 O.2   294  VAL294     -0.2867
     87  CB        37.3980    4.4270   54.9710 C.3   294  VAL294      0.0252
     88  CG1       37.1690    4.1220   56.4440 C.3   294  VAL294      0.0019
     89  CG2       36.1140    4.1930   54.1730 C.3   294  VAL294      0.0019
     90  N         30.2310   10.7630   51.2570 N.3   317  ALA317     -0.1231
     91  CA        29.1540    9.8230   50.9840 C.3   317  ALA317      0.1694
     92  C         29.6280    8.3880   51.1210 C.2   317  ALA317      0.2592
     93  O         30.8230    8.0740   50.9280 O.2   317  ALA317     -0.2718
     94  CB        28.5150   10.0650   49.5980 C.3   317  ALA317      0.0304
     95  N         28.6790    7.5390   51.4780 N.am  318  ILE318     -0.1966
     96  CA        28.8640    6.0790   51.4220 C.3   318  ILE318      0.1727
     97  C         28.2820    5.6100   50.1080 C.2   318  ILE318      0.2616
     98  O         27.2230    6.0860   49.7200 O.2   318  ILE318     -0.2715
     99  CB        28.0920    5.3980   52.5980 C.3   318  ILE318      0.0290
    100  CG1       28.5460    5.9500   53.9510 C.3   318  ILE318      0.0022
    101  CG2       28.2560    3.8780   52.5760 C.3   318  ILE318      0.0023
    102  CD1       29.9950    5.7480   54.2570 C.3   318  ILE318      0.0001
    103  N         28.9830    4.7120   49.4090 N.am  319  PHE319     -0.1974
    104  CA        28.4530    4.0380   48.2120 C.3   319  PHE319      0.1639
    105  C         28.0210    5.0080   47.0960 C.2   319  PHE319      0.2290
    106  O         26.9910    4.8060   46.4540 O.2   319  PHE319     -0.2864
    107  CB        27.2870    3.0830   48.6100 C.3   319  PHE319      0.0560
    108  CG        26.9590    2.0540   47.5720 C.ar  319  PHE319     -0.0200
    109  CD1       27.9610    1.2330   47.0170 C.ar  319  PHE319     -0.0042
    110  CD2       25.6280    1.8870   47.1360 C.ar  319  PHE319     -0.0042
    111  CE1       27.6430    0.2530   46.0480 C.ar  319  PHE319     -0.0003
    112  CE2       25.2960    0.9220   46.1680 C.ar  319  PHE319     -0.0003
    113  CZ        26.2960    0.1110   45.6120 C.ar  319  PHE319     -0.0000
@<TRIPOS>BOND
     1    69    70    1
     2    71    72    2
     3    71    70    1
     4    70    73    1
     5    66    65    2
     6    65    64    1
     7    63    64    1
     8   113   111   ar
     9   113   112   ar
    10    73    74    1
    11    73    75    1
    12    64    67    1
    13   111   109   ar
    14   112   110   ar
    15   106   105    2
    16    67    68    1
    17   109   108   ar
    18   105   104    1
    19   110   108   ar
    20    82    80    1
    21   108   107    1
    22    81    80    1
    23    80    77    1
    24   104   107    1
    25   104   103    1
    26    18    17    2
    27    17    16    1
    28   103    97   am
    29    34    32   ar
    30    34    35   ar
    31    94    91    1
    32    77    76    1
    33    77    78    1
    34    98    97    2
    35    97    96    1
    36    32    30   ar
    37    35    33   ar
    38    78    79    2
    39    24    22   ar
    40    24    23   ar
    41    22    20   ar
    42    16    15    1
    43    16    19    1
    44    93    92    2
    45    91    92    1
    46    91    90    1
    47    25    26    1
    48    23    21   ar
    49    92    95   am
    50    20    21   ar
    51    20    19    1
    52    96    95    1
    53    96    99    1
    54    30    29    1
    55    30    31   ar
    56     1     2    1
    57    33    31   ar
    58    29    26    1
    59    26    27    1
    60     6     5    1
    61   101    99    1
    62    99   100    1
    63     5     2    1
    64     2     3    1
    65    27    28    2
    66    83    84    1
    67     3     4    2
    68   100   102    1
    69    89    87    1
    70    84    87    1
    71    84    85    1
    72    87    88    1
    73    61    60    1
    74    53    51   ar
    75    53    54   ar
    76    86    85    2
    77    58    57    2
    78    51    49   ar
    79    59    60    1
    80    59    56    1
    81    47    46    2
    82    54    52   ar
    83    60    62    1
    84    57    56    1
    85    43    41    1
    86    49    48    1
    87    49    50   ar
    88    56    55    1
    89    46    55   am
    90    46    45    1
    91    48    45    1
    92    14    12    1
    93    52    50   ar
    94    42    41    1
    95    45    44    1
    96    41    40    1
    97    40    37    1
    98    12    11    1
    99    12    13    1
   100    11     8    1
   101    37    36    1
   102    37    38    1
   103     7     8    1
   104     8     9    1
   105    38    39    2
   106    10     9    2
