@<TRIPOS>MOLECULE
tmp/1mg2P00.pdb
 204 198 0 0 0
SMALL
GASTEIGER

@<TRIPOS>ATOM
      1  N        -65.9960  -50.3140   33.1580 N.3    56  MET56      -0.1230
      2  CA       -66.4560  -49.5440   32.0050 C.3    56  MET56       0.1702
      3  C        -66.7950  -48.0730   32.2180 C.2    56  MET56       0.2592
      4  O        -66.8500  -47.3170   31.2530 O.2    56  MET56      -0.2718
      5  CB       -67.6760  -50.2280   31.3820 C.3    56  MET56       0.0401
      6  CG       -67.3540  -51.3980   30.4700 C.3    56  MET56       0.0596
      7  SD       -67.8300  -51.0490   28.7540 S.3    56  MET56      -0.1393
      8  CE       -66.4520  -50.0330   28.2150 C.3    56  MET56       0.0692
      9  N        -67.0120  -47.6570   33.4620 N.am   57  CYS57      -0.1970
     10  CA       -67.3990  -46.2700   33.7100 C.3    57  CYS57       0.1712
     11  C        -66.5330  -45.5270   34.7230 C.2    57  CYS57       0.2296
     12  O        -66.1950  -44.3650   34.5230 O.2    57  CYS57      -0.2864
     13  CB       -68.8570  -46.2330   34.1780 C.3    57  CYS57       0.0983
     14  SG       -69.8960  -47.5840   33.5320 S.3    57  CYS57      -0.0798
     15  N        -63.5550  -44.9390   35.4610 N.3    59  GLY59      -0.1210
     16  CA       -62.5400  -44.0300   34.9630 C.3    59  GLY59       0.1956
     17  C        -62.9620  -42.5980   34.6780 C.2    59  GLY59       0.2612
     18  O        -62.3070  -41.6560   35.1250 O.2    59  GLY59      -0.2717
     19  N        -64.0490  -42.4180   33.9370 N.am   60  CYS60      -0.1956
     20  CA       -64.5020  -41.0750   33.5980 C.3    60  CYS60       0.1843
     21  C        -65.5950  -40.4980   34.5060 C.2    60  CYS60       0.2625
     22  O        -65.7250  -39.2790   34.6250 O.2    60  CYS60      -0.2714
     23  CB       -65.0070  -41.0420   32.1560 C.3    60  CYS60       0.0997
     24  SG       -63.8820  -41.6670   30.8520 S.3    60  CYS60      -0.0797
     25  N        -66.3710  -41.3610   35.1550 N.am   61  HIS61      -0.1973
     26  CA       -67.4670  -40.8960   36.0000 C.3    61  HIS61       0.1656
     27  C        -67.2660  -40.9350   37.5080 C.2    61  HIS61       0.2291
     28  O        -68.1460  -40.5180   38.2630 O.2    61  HIS61      -0.2864
     29  CB       -68.7410  -41.6580   35.6360 C.3    61  HIS61       0.0771
     30  CG       -69.3780  -41.1780   34.3720 C.ar   61  HIS61       0.0820
     31  ND1      -69.9890  -39.9590   34.3160 N.ar   61  HIS61      -0.2267
     32  CD2      -69.3090  -41.9520   33.2680 C.ar   61  HIS61       0.1154
     33  CE1      -70.3670  -39.9290   32.9900 C.ar   61  HIS61       0.1986
     34  NE2      -69.9550  -41.1520   32.3330 N.ar   61  HIS61      -0.2212
     35  N        -63.7720  -37.0590   35.2420 N.3    69  ILE69      -0.1231
     36  CA       -63.4080  -36.4240   33.9810 C.3    69  ILE69       0.1692
     37  C        -64.7290  -36.0610   33.3260 C.2    69  ILE69       0.2593
     38  O        -64.8170  -35.1170   32.5420 O.2    69  ILE69      -0.2718
     39  CB       -62.6650  -37.3950   33.0430 C.3    69  ILE69       0.0266
     40  CG1      -61.4480  -37.9900   33.7530 C.3    69  ILE69       0.0019
     41  CG2      -62.2520  -36.6750   31.7860 C.3    69  ILE69       0.0020
     42  CD1      -60.4500  -36.9660   34.2310 C.3    69  ILE69       0.0001
     43  N        -65.7500  -36.8430   33.6660 N.am   70  GLY70      -0.1943
     44  CA       -67.0900  -36.6380   33.1470 C.3    70  GLY70       0.1998
     45  C        -68.0680  -36.3020   34.2650 C.2    70  GLY70       0.2481
     46  O        -67.7270  -36.3850   35.4500 O.2    70  GLY70      -0.2729
     47  N        -69.3100  -35.9390   33.9180 N.am   71  PRO71      -0.2715
     48  CA       -70.3490  -35.5780   34.8860 C.3    71  PRO71       0.1536
     49  C        -70.7720  -36.6660   35.8690 C.2    71  PRO71       0.2599
     50  O        -70.6470  -37.8630   35.5920 O.2    71  PRO71      -0.2715
     51  CB       -71.4990  -35.1260   33.9910 C.3    71  PRO71       0.0310
     52  CG       -71.3360  -35.9960   32.7890 C.3    71  PRO71       0.0237
     53  CD       -69.8530  -35.9370   32.5480 C.3    71  PRO71       0.0939
     54  N        -71.2720  -36.2310   37.0220 N.am   72  GLY72      -0.1941
     55  CA       -71.7300  -37.1660   38.0320 C.3    72  GLY72       0.2014
     56  C        -72.9960  -37.8470   37.5490 C.2    72  GLY72       0.2638
     57  O        -73.7240  -37.3030   36.7160 O.2    72  GLY72      -0.2714
     58  N        -73.2630  -39.0360   38.0740 N.am   73  LEU73      -0.1977
     59  CA       -74.4420  -39.8110   37.6950 C.3    73  LEU73       0.1596
     60  C        -75.2200  -40.2510   38.9340 C.2    73  LEU73       0.2287
     61  O        -76.1470  -41.0580   38.8320 O.2    73  LEU73      -0.2864
     62  CB       -74.0000  -41.0650   36.9260 C.3    73  LEU73       0.0297
     63  CG       -73.7040  -41.0590   35.4210 C.3    73  LEU73       0.0022
     64  CD1      -73.2010  -39.7190   34.9450 C.3    73  LEU73       0.0001
     65  CD2      -72.7020  -42.1620   35.1420 C.3    73  LEU73       0.0001
     66  N        -80.0150  -34.6240   39.2740 N.3    77  TYR77      -0.1227
     67  CA       -79.7840  -33.7670   38.1130 C.3    77  TYR77       0.1736
     68  C        -79.2030  -34.5350   36.9440 C.2    77  TYR77       0.2595
     69  O        -78.3170  -35.3730   37.1200 O.2    77  TYR77      -0.2718
     70  CB       -78.8370  -32.6060   38.4400 C.3    77  TYR77       0.0548
     71  CG       -78.5030  -31.7730   37.2150 C.ar   77  TYR77      -0.0200
     72  CD1      -79.4740  -30.9840   36.6010 C.ar   77  TYR77      -0.0009
     73  CD2      -77.2420  -31.8310   36.6300 C.ar   77  TYR77      -0.0009
     74  CE1      -79.1990  -30.2800   35.4270 C.ar   77  TYR77       0.0417
     75  CE2      -76.9560  -31.1320   35.4570 C.ar   77  TYR77       0.0417
     76  CZ       -77.9390  -30.3600   34.8590 C.ar   77  TYR77       0.1957
     77  OH       -77.6750  -29.6840   33.6860 O.3    77  TYR77      -0.2866
     78  N        -79.7070  -34.2390   35.7500 N.am   78  TRP78      -0.1962
     79  CA       -79.2320  -34.8870   34.5350 C.3    78  TRP78       0.1771
     80  C        -79.1180  -33.8770   33.4000 C.2    78  TRP78       0.2620
     81  O        -80.0380  -33.0950   33.1550 O.2    78  TRP78      -0.2715
     82  CB       -80.1830  -36.0110   34.0980 C.3    78  TRP78       0.0590
     83  CG       -80.3920  -37.1040   35.1140 C.ar   78  TRP78       0.0006
     84  CD1      -81.4190  -37.2070   36.0110 C.ar   78  TRP78       0.0946
     85  CD2      -79.5540  -38.2470   35.3350 C.ar   78  TRP78       0.0152
     86  NE1      -81.2730  -38.3410   36.7730 N.ar   78  TRP78      -0.2442
     87  CE2      -80.1370  -38.9980   36.3810 C.ar   78  TRP78       0.0810
     88  CE3      -78.3660  -38.7080   34.7520 C.ar   78  TRP78       0.0012
     89  CZ2      -79.5710  -40.1860   36.8580 C.ar   78  TRP78       0.0191
     90  CZ3      -77.8020  -39.8890   35.2260 C.ar   78  TRP78       0.0001
     91  CH2      -78.4070  -40.6130   36.2700 C.ar   78  TRP78       0.0015
     92  N        -77.9800  -33.8940   32.7160 N.am   79  THR79      -0.1937
     93  CA       -77.7530  -33.0100   31.5820 C.3    79  THR79       0.2028
     94  C        -78.8740  -33.3210   30.5950 C.2    79  THR79       0.2642
     95  O        -79.4730  -32.4250   30.0080 O.2    79  THR79      -0.2714
     96  CB       -76.3910  -33.3060   30.9210 C.3    79  THR79       0.1808
     97  OG1      -75.3510  -33.2180   31.9050 O.3    79  THR79      -0.2208
     98  CG2      -76.1130  -32.3170   29.8030 C.3    79  THR79       0.0379
     99  N        -79.1530  -34.6080   30.4320 N.am   80  TYR80      -0.1973
    100  CA       -80.2150  -35.0710   29.5470 C.3    80  TYR80       0.1639
    101  C        -81.3610  -35.5420   30.4450 C.2    80  TYR80       0.2290
    102  O        -81.3110  -36.6260   31.0220 O.2    80  TYR80      -0.2864
    103  CB       -79.6850  -36.2000   28.6620 C.3    80  TYR80       0.0560
    104  CG       -78.5470  -35.7400   27.7800 C.ar   80  TYR80      -0.0198
    105  CD1      -78.7910  -34.9690   26.6410 C.ar   80  TYR80      -0.0009
    106  CD2      -77.2230  -36.0190   28.1130 C.ar   80  TYR80      -0.0009
    107  CE1      -77.7440  -34.4850   25.8550 C.ar   80  TYR80       0.0417
    108  CE2      -76.1650  -35.5390   27.3360 C.ar   80  TYR80       0.0417
    109  CZ       -76.4340  -34.7730   26.2080 C.ar   80  TYR80       0.1957
    110  OH       -75.3950  -34.3020   25.4360 O.3    80  TYR80      -0.2866
    111  N        -82.7840  -39.1500   31.2730 N.3    83  ASN83      -0.1240
    112  CA       -81.9900  -40.1220   32.0100 C.3    83  ASN83       0.1653
    113  C        -82.5170  -40.3800   33.4120 C.2    83  ASN83       0.2266
    114  O        -81.9320  -41.1620   34.1570 O.2    83  ASN83      -0.2867
    115  CB       -80.5260  -39.6920   32.0790 C.3    83  ASN83       0.1155
    116  CG       -79.8210  -39.8380   30.7520 C.2    83  ASN83       0.2627
    117  OD1      -80.1670  -40.7010   29.9520 O.2    83  ASN83      -0.2716
    118  ND2      -78.8140  -39.0060   30.5170 N.am   83  ASN83      -0.0877
    119  N        -81.9960  -43.5720   30.2590 N.3    89  LEU89      -0.1245
    120  CA       -80.6510  -43.9390   30.6990 C.3    89  LEU89       0.1561
    121  C        -80.0750  -44.9190   29.6820 C.2    89  LEU89       0.2260
    122  O        -78.9320  -44.7850   29.2430 O.2    89  LEU89      -0.2867
    123  CB       -80.7110  -44.6150   32.0770 C.3    89  LEU89       0.0270
    124  CG       -79.4980  -44.5000   33.0110 C.3    89  LEU89       0.0019
    125  CD1      -79.6040  -45.5620   34.0830 C.3    89  LEU89       0.0001
    126  CD2      -78.1950  -44.6690   32.2500 C.3    89  LEU89       0.0001
    127  N        -79.0400  -43.3480   26.3890 N.3    92  THR92      -0.1203
    128  CA       -77.7610  -42.6500   26.4760 C.3    92  THR92       0.1994
    129  C        -76.6170  -43.6410   26.3350 C.2    92  THR92       0.2617
    130  O        -75.6400  -43.3700   25.6490 O.2    92  THR92      -0.2717
    131  CB       -77.6100  -41.9020   27.8240 C.3    92  THR92       0.1784
    132  OG1      -78.5340  -40.8050   27.8690 O.3    92  THR92      -0.2211
    133  CG2      -76.1890  -41.3810   27.9960 C.3    92  THR92       0.0376
    134  N        -76.7460  -44.7870   26.9910 N.am   93  LEU93      -0.1979
    135  CA       -75.7230  -45.8280   26.9390 C.3    93  LEU93       0.1596
    136  C        -75.5730  -46.4730   25.5660 C.2    93  LEU93       0.2287
    137  O        -74.4620  -46.6130   25.0560 O.2    93  LEU93      -0.2864
    138  CB       -76.0360  -46.9190   27.9620 C.3    93  LEU93       0.0297
    139  CG       -75.4460  -46.6730   29.3420 C.3    93  LEU93       0.0022
    140  CD1      -75.7890  -47.8100   30.2920 C.3    93  LEU93       0.0001
    141  CD2      -73.9520  -46.5600   29.1670 C.3    93  LEU93       0.0001
    142  N        -73.5440  -40.1520   23.9800 N.3    97  ALA97      -0.1231
    143  CA       -73.8030  -38.7220   24.1470 C.3    97  ALA97       0.1694
    144  C        -72.8610  -37.9340   23.2420 C.2    97  ALA97       0.2593
    145  O        -72.9240  -38.0580   22.0190 O.2    97  ALA97      -0.2718
    146  CB       -73.6020  -38.3170   25.6060 C.3    97  ALA97       0.0304
    147  N        -71.9930  -37.1210   23.8400 N.am   98  THR98      -0.1939
    148  CA       -71.0310  -36.3480   23.0650 C.3    98  THR98       0.2028
    149  C        -69.6190  -36.5930   23.5940 C.2    98  THR98       0.2643
    150  O        -69.4270  -37.2640   24.6160 O.2    98  THR98      -0.2714
    151  CB       -71.3220  -34.8380   23.1250 C.3    98  THR98       0.1808
    152  OG1      -70.9690  -34.3320   24.4180 O.3    98  THR98      -0.2208
    153  CG2      -72.7960  -34.5710   22.8580 C.3    98  THR98       0.0379
    154  N        -68.6330  -36.0610   22.8810 N.am   99  GLY99      -0.1939
    155  CA       -67.2530  -36.2260   23.2960 C.3    99  GLY99       0.2014
    156  C        -66.8590  -37.6660   23.5510 C.2    99  GLY99       0.2639
    157  O        -67.1610  -38.5530   22.7570 O.2    99  GLY99      -0.2714
    158  N        -66.1900  -37.9020   24.6730 N.am  100  GLN100     -0.1963
    159  CA       -65.7360  -39.2390   25.0300 C.3   100  GLN100      0.1733
    160  C        -66.8520  -40.2130   25.4180 C.2   100  GLN100      0.2616
    161  O        -66.5790  -41.3660   25.7560 O.2   100  GLN100     -0.2715
    162  CB       -64.7120  -39.1450   26.1670 C.3   100  GLN100      0.0408
    163  CG       -63.4310  -38.4230   25.7710 C.3   100  GLN100      0.0908
    164  CD       -62.4580  -38.2590   26.9250 C.2   100  GLN100      0.2608
    165  OE1      -61.3330  -37.7930   26.7380 O.2   100  GLN100     -0.2717
    166  NE2      -62.8860  -38.6360   28.1260 N.am  100  GLN100     -0.0878
    167  N        -68.1010  -39.7580   25.3640 N.am  101  MET101     -0.1977
    168  CA       -69.2320  -40.6120   25.7150 C.3   101  MET101      0.1605
    169  C        -69.8820  -41.1820   24.4610 C.2   101  MET101      0.2287
    170  O        -70.9270  -40.7010   24.0180 O.2   101  MET101     -0.2864
    171  CB       -70.2690  -39.8150   26.5060 C.3   101  MET101      0.0413
    172  CG       -71.4100  -40.6530   27.0790 C.3   101  MET101      0.0598
    173  SD       -70.8860  -41.9520   28.2280 S.3   101  MET101     -0.1393
    174  CE       -72.0120  -43.2390   27.7730 C.3   101  MET101      0.0692
    175  N        -72.4100  -47.5700   23.4680 N.3   104  MET104     -0.1245
    176  CA       -71.8350  -48.7070   24.1790 C.3   104  MET104      0.1570
    177  C        -72.1290  -50.0630   23.5450 C.2   104  MET104      0.2261
    178  O        -71.5540  -51.0680   23.9620 O.2   104  MET104     -0.2867
    179  CB       -72.3480  -48.7350   25.6240 C.3   104  MET104      0.0387
    180  CG       -72.0430  -47.5060   26.4710 C.3   104  MET104      0.0595
    181  SD       -70.3440  -47.4090   27.0560 S.3   104  MET104     -0.1393
    182  CE       -69.9170  -45.7200   26.5690 C.3   104  MET104      0.0692
    183  N        -70.8950  -53.6540   25.3270 N.3   108  LEU108     -0.1245
    184  CA       -71.8030  -54.2330   26.3070 C.3   108  LEU108      0.1561
    185  C        -73.0070  -54.8980   25.6620 C.2   108  LEU108      0.2260
    186  O        -73.6070  -54.3470   24.7450 O.2   108  LEU108     -0.2867
    187  CB       -72.2850  -53.1480   27.2790 C.3   108  LEU108      0.0270
    188  CG       -71.2810  -52.5880   28.2950 C.3   108  LEU108      0.0019
    189  CD1      -71.8710  -51.3820   29.0140 C.3   108  LEU108      0.0001
    190  CD2      -70.9270  -53.6710   29.2970 C.3   108  LEU108      0.0001
    191  N        -75.5030  -52.8270   34.3650 N.3   116  THR116     -0.1218
    192  CA       -74.6750  -51.6680   34.6610 C.3   116  THR116      0.1862
    193  C        -75.5810  -50.5060   35.0740 C.2   116  THR116      0.2287
    194  O        -75.2750  -49.7610   36.0040 O.2   116  THR116     -0.2866
    195  CB       -73.8490  -51.2590   33.4310 C.3   116  THR116      0.1770
    196  OG1      -73.0300  -52.3650   33.0230 O.3   116  THR116     -0.2211
    197  CG2      -72.9550  -50.0650   33.7580 C.3   116  THR116      0.0375
    198  N        -75.7120  -47.9290   38.6160 N.3   120  VAL120     -0.1245
    199  CA       -75.7980  -46.4790   38.5900 C.3   120  VAL120      0.1561
    200  C        -76.9020  -46.0340   39.5350 C.2   120  VAL120      0.2260
    201  O        -76.6810  -45.2130   40.4250 O.2   120  VAL120     -0.2867
    202  CB       -76.1230  -45.9670   37.1750 C.3   120  VAL120      0.0252
    203  CG1      -76.4450  -44.4810   37.2170 C.3   120  VAL120      0.0019
    204  CG2      -74.9450  -46.2260   36.2500 C.3   120  VAL120      0.0019
@<TRIPOS>BOND
     1   145   144    2
     2   157   156    2
     3   153   151    1
     4   154   155    1
     5   154   149   am
     6   148   151    1
     7   148   149    1
     8   148   147    1
     9   151   152    1
    10   144   147   am
    11   144   143    1
    12   155   156    1
    13   175   176    1
    14   177   178    2
    15   177   176    1
    16   156   158   am
    17   149   150    2
    18   142   143    1
    19   170   169    2
    20   143   146    1
    21   176   179    1
    22   169   168    1
    23   158   159    1
    24   186   185    2
    25   159   160    1
    26   159   162    1
    27   137   136    2
    28   183   184    1
    29   167   160   am
    30   167   168    1
    31   160   161    2
    32   110   109    1
    33   136   135    1
    34   179   180    1
    35   130   129    2
    36   185   184    1
    37   168   171    1
    38   163   162    1
    39   163   164    1
    40   107   109   ar
    41   107   105   ar
    42   109   108   ar
    43   184   187    1
    44   129   128    1
    45   129   134   am
    46   127   128    1
    47   180   181    1
    48   128   131    1
    49   171   172    1
    50   182   181    1
    51   105   104   ar
    52   165   164    2
    53   164   166   am
    54   135   134    1
    55   135   138    1
    56   172   173    1
    57   187   188    1
    58   108   106   ar
    59   174   173    1
    60   104   106   ar
    61   104   103    1
    62   131   132    1
    63   131   133    1
    64   138   139    1
    65     8     7    1
    66   188   189    1
    67   188   190    1
    68   103   100    1
    69     7     6    1
    70   141   139    1
    71   122   121    2
    72   139   140    1
    73   100    99    1
    74   100   101    1
    75   121   120    1
    76    98    96    1
    77   117   116    2
    78    95    94    2
    79   119   120    1
    80    99    94   am
    81   101   102    2
    82     6     5    1
    83   118   116   am
    84    94    93    1
    85   120   123    1
    86   116   115    1
    87    24    23    1
    88    96    93    1
    89    96    97    1
    90     4     3    2
    91   111   112    1
    92     5     2    1
    93    93    92    1
    94    41    39    1
    95     2     3    1
    96     2     1    1
    97   112   115    1
    98   112   113    1
    99   123   124    1
   100    23    20    1
   101     3     9   am
   102   126   124    1
   103    34    33   ar
   104    34    32   ar
   105    38    37    2
   106    53    52    1
   107    53    47    1
   108    92    80   am
   109    52    51    1
   110    33    31   ar
   111   124   125    1
   112   196   195    1
   113    39    40    1
   114    39    36    1
   115    44    43    1
   116    44    45    1
   117    81    80    2
   118    32    30   ar
   119    37    43   am
   120    37    36    1
   121    80    79    1
   122   113   114    2
   123   195   197    1
   124   195   192    1
   125     9    10    1
   126    14    13    1
   127    20    19    1
   128    20    21    1
   129    77    76    1
   130    10    13    1
   131    10    11    1
   132    40    42    1
   133    47    45   am
   134    47    48    1
   135    19    17   am
   136    36    35    1
   137    51    48    1
   138    82    79    1
   139    82    83    1
   140    45    46    2
   141    31    30   ar
   142   191   192    1
   143    30    29    1
   144    21    22    2
   145    21    25   am
   146    12    11    2
   147    79    78    1
   148   192   193    1
   149    17    16    1
   150    17    18    2
   151    88    90   ar
   152    88    85   ar
   153    76    74   ar
   154    76    75   ar
   155    48    49    1
   156    64    63    1
   157    16    15    1
   158   193   194    2
   159    83    85   ar
   160    83    84   ar
   161    65    63    1
   162    25    26    1
   163    90    91   ar
   164    85    87   ar
   165    63    62    1
   166    74    72   ar
   167    75    73   ar
   168    50    49    2
   169    29    26    1
   170    78    68   am
   171    49    54   am
   172    26    27    1
   173    84    86   ar
   174   204   202    1
   175    91    89   ar
   176    87    86   ar
   177    87    89   ar
   178    72    71   ar
   179    73    71   ar
   180    57    56    2
   181    62    59    1
   182    68    69    2
   183    68    67    1
   184    54    55    1
   185   202   203    1
   186   202   199    1
   187    71    70    1
   188    27    28    2
   189    56    55    1
   190    56    58   am
   191    59    58    1
   192    59    60    1
   193    67    70    1
   194    67    66    1
   195   199   198    1
   196   199   200    1
   197    61    60    2
   198   200   201    2
