@<TRIPOS>MOLECULE
tmp/1mgoA01.pdb
 77 73 0 0 0
SMALL
GASTEIGER

@<TRIPOS>ATOM
      1  N         13.4530   -5.6360  -18.6900 N.3    57  LEU57      -0.1231
      2  CA        12.1590   -6.2470  -18.9390 C.3    57  LEU57       0.1693
      3  C         12.3810   -7.4550  -19.8700 C.2    57  LEU57       0.2591
      4  O         12.9100   -7.2840  -20.9640 O.2    57  LEU57      -0.2718
      5  CB        11.2260   -5.2590  -19.6460 C.3    57  LEU57       0.0284
      6  CG         9.7440   -5.6330  -19.7510 C.3    57  LEU57       0.0019
      7  CD1        9.1020   -5.7140  -18.3270 C.3    57  LEU57       0.0001
      8  CD2        9.0250   -4.5860  -20.5920 C.3    57  LEU57       0.0001
      9  N         11.9350   -8.6360  -19.4670 N.am   58  VAL58      -0.1980
     10  CA        12.1110   -9.8490  -20.2440 C.3    58  VAL58       0.1595
     11  C         10.8790  -10.0780  -21.0970 C.2    58  VAL58       0.2287
     12  O          9.7250  -10.1470  -20.5930 O.2    58  VAL58      -0.2864
     13  CB        12.4350  -11.0210  -19.3270 C.3    58  VAL58       0.0276
     14  CG1       12.5670  -12.3420  -20.1090 C.3    58  VAL58       0.0022
     15  CG2       13.7190  -10.7510  -18.6240 C.3    58  VAL58       0.0022
     16  N         -5.9900   -3.4900  -15.0940 N.3   110  PHE110     -0.1241
     17  CA        -4.9670   -4.4320  -15.5760 C.3   110  PHE110      0.1605
     18  C         -5.6530   -5.6880  -16.0740 C.2   110  PHE110      0.2264
     19  O         -5.6840   -6.7090  -15.4260 O.2   110  PHE110     -0.2867
     20  CB        -3.9230   -4.7410  -14.4700 C.3   110  PHE110      0.0534
     21  CG        -2.6840   -5.4230  -14.9430 C.ar  110  PHE110     -0.0203
     22  CD1       -2.0020   -5.0280  -16.0930 C.ar  110  PHE110     -0.0042
     23  CD2       -2.2200   -6.5300  -14.2490 C.ar  110  PHE110     -0.0042
     24  CE1       -0.8570   -5.7010  -16.4950 C.ar  110  PHE110     -0.0003
     25  CE2       -1.0740   -7.2030  -14.6250 C.ar  110  PHE110     -0.0003
     26  CZ        -0.3720   -6.8090  -15.7430 C.ar  110  PHE110     -0.0000
     27  N          1.8140   -8.6800  -20.3020 N.3   116  LEU116     -0.1231
     28  CA         2.8730   -8.2530  -19.4020 C.3   116  LEU116      0.1693
     29  C          3.2370   -9.2650  -18.3090 C.2   116  LEU116      0.2592
     30  O          4.4080   -9.5410  -18.0600 O.2   116  LEU116     -0.2718
     31  CB         2.4410   -6.9240  -18.7610 C.3   116  LEU116      0.0284
     32  CG         3.4780   -6.2710  -17.8510 C.3   116  LEU116      0.0019
     33  CD1        4.7610   -5.9300  -18.6240 C.3   116  LEU116      0.0001
     34  CD2        2.8410   -5.0170  -17.1780 C.3   116  LEU116      0.0001
     35  N          2.2560   -9.8140  -17.6200 N.am  117  SER117     -0.1952
     36  CA         2.5780  -10.7210  -16.5000 C.3   117  SER117      0.1924
     37  C          3.3670  -11.9770  -16.8780 C.2   117  SER117      0.2314
     38  O          4.2520  -12.4280  -16.1380 O.2   117  SER117     -0.2863
     39  CB         1.3070  -11.1540  -15.8000 C.3   117  SER117      0.2116
     40  OG         0.6830  -10.0460  -15.1880 O.3   117  SER117     -0.2180
     41  N          4.8000  -12.8740  -20.4360 N.3   119  PRO119     -0.2116
     42  CA         4.8020  -12.4590  -21.8410 C.3   119  PRO119      0.1372
     43  C          4.9910  -13.6190  -22.8140 C.2   119  PRO119      0.2244
     44  O          5.8860  -14.4590  -22.6300 O.2   119  PRO119     -0.2868
     45  CB         5.9470  -11.4580  -21.9310 C.3   119  PRO119      0.0268
     46  CG         6.7790  -11.7620  -20.8000 C.3   119  PRO119      0.0207
     47  CD         5.9080  -12.2840  -19.6750 C.3   119  PRO119      0.0892
     48  N          9.2650    0.7870  -13.3800 N.3   294  VAL294     -0.1231
     49  CA         9.4090   -0.6550  -13.5610 C.3   294  VAL294      0.1678
     50  C         10.8380   -1.0230  -13.1570 C.2   294  VAL294      0.2434
     51  O         11.7690   -0.5970  -13.8300 O.2   294  VAL294     -0.2733
     52  CB         9.2480   -1.0190  -15.0560 C.3   294  VAL294      0.0265
     53  CG1        9.5130   -2.5170  -15.3180 C.3   294  VAL294      0.0020
     54  CG2        7.8690   -0.6550  -15.5290 C.3   294  VAL294      0.0020
     55  N         11.0450   -1.8250  -12.1140 N.am  295  PRO295     -0.2729
     56  CA        12.3930   -2.2520  -11.7510 C.3   295  PRO295      0.1401
     57  C         12.8150   -3.5070  -12.5140 C.2   295  PRO295      0.2269
     58  O         11.9970   -4.1540  -13.2040 O.2   295  PRO295     -0.2865
     59  CB        12.2540   -2.6070  -10.2860 C.3   295  PRO295      0.0296
     60  CG        10.9000   -3.2190  -10.2230 C.3   295  PRO295      0.0237
     61  CD        10.0390   -2.4980  -11.2780 C.3   295  PRO295      0.0939
     62  N         13.8440   -7.1290  -13.7250 N.3   297  ASP297     -0.1239
     63  CA        13.2530   -8.4410  -13.6670 C.3   297  ASP297      0.1674
     64  C         13.7100   -9.2360  -12.4420 C.2   297  ASP297      0.2266
     65  O         14.9020   -9.3380  -12.2170 O.2   297  ASP297     -0.2867
     66  CB        13.6980   -9.2150  -14.9090 C.3   297  ASP297      0.1410
     67  CG        13.0360  -10.5610  -15.0060 C.2   297  ASP297      0.3668
     68  OD1       11.8080  -10.5600  -15.1710 O.co2 297  ASP297     -0.2456
     69  OD2       13.6550  -11.6490  -14.8750 O.co2 297  ASP297     -0.2456
     70  N         -0.4360    0.3090  -13.4300 N.3   318  ILE318     -0.1245
     71  CA        -0.1020    0.3290  -14.8690 C.3   318  ILE318      0.1561
     72  C         -1.0390    1.3360  -15.5110 C.2   318  ILE318      0.2260
     73  O         -2.1970    1.4430  -15.1940 O.2   318  ILE318     -0.2867
     74  CB        -0.3640   -1.0740  -15.5320 C.3   318  ILE318      0.0252
     75  CG1        0.4550   -2.1520  -14.8470 C.3   318  ILE318      0.0019
     76  CG2       -0.0230   -0.9880  -17.0040 C.3   318  ILE318      0.0019
     77  CD1        1.8160   -1.9390  -14.8540 C.3   318  ILE318      0.0001
@<TRIPOS>BOND
     1    43    44    2
     2    43    42    1
     3    45    42    1
     4    45    46    1
     5    42    41    1
     6    11    12    2
     7    11    10    1
     8     4     3    2
     9    46    47    1
    10     8     6    1
    11    41    47    1
    12    27    28    1
    13    10     9    1
    14    10    13    1
    15    14    13    1
    16     3     9   am
    17     3     2    1
    18     6     5    1
    19     6     7    1
    20     5     2    1
    21    28    31    1
    22    28    29    1
    23    13    15    1
    24     2     1    1
    25    31    32    1
    26    33    32    1
    27    29    30    2
    28    29    35   am
    29    32    34    1
    30    35    36    1
    31    76    74    1
    32    37    36    1
    33    37    38    2
    34    36    39    1
    35    24    22   ar
    36    24    26   ar
    37    22    21   ar
    38    18    17    1
    39    18    19    2
    40    39    40    1
    41    26    25   ar
    42    17    16    1
    43    17    20    1
    44    74    71    1
    45    74    75    1
    46    54    52    1
    47    72    73    2
    48    72    71    1
    49    53    52    1
    50    68    67   ar
    51    52    49    1
    52    67    66    1
    53    67    69   ar
    54    21    20    1
    55    21    23   ar
    56    66    63    1
    57    71    70    1
    58    77    75    1
    59    25    23   ar
    60    51    50    2
    61    62    63    1
    62    63    64    1
    63    49    48    1
    64    49    50    1
    65    58    57    2
    66    50    55   am
    67    57    56    1
    68    64    65    2
    69    55    56    1
    70    55    61    1
    71    56    59    1
    72    61    60    1
    73    59    60    1
