@<TRIPOS>MOLECULE
tmp/1mgoB02.pdb
 110 101 0 0 0
SMALL
GASTEIGER

@<TRIPOS>ATOM
      1  N          0.2790   -8.1320   22.2860 N.3    48  SER48      -0.1217
      2  CA         1.3290   -7.1440   22.3300 C.3    48  SER48       0.1889
      3  C          2.0070   -7.0680   23.7190 C.2    48  SER48       0.2288
      4  O          3.2130   -6.7980   23.8220 O.2    48  SER48      -0.2866
      5  CB         0.8700   -5.7950   21.9110 C.3    48  SER48       0.2089
      6  OG         0.4450   -5.8560   20.5580 O.3    48  SER48      -0.2183
      7  N          8.5900   -6.8830   20.8450 N.3    57  LEU57      -0.1245
      8  CA         8.3130   -5.4760   20.8950 C.3    57  LEU57       0.1561
      9  C          9.2570   -4.9430   21.9450 C.2    57  LEU57       0.2260
     10  O          9.1740   -5.3830   23.0890 O.2    57  LEU57      -0.2867
     11  CB         6.8450   -5.2440   21.3430 C.3    57  LEU57       0.0270
     12  CG         6.2710   -3.8530   21.2920 C.3    57  LEU57       0.0019
     13  CD1        6.2930   -3.3010   19.8640 C.3    57  LEU57       0.0001
     14  CD2        4.8340   -3.9320   21.8310 C.3    57  LEU57       0.0001
     15  N         -2.0850   -2.5810   28.5560 N.3    67  HIS67      -0.1245
     16  CA        -2.5450   -1.4560   27.7950 C.3    67  HIS67       0.1576
     17  C         -4.0210   -1.4780   27.4210 C.2    67  HIS67       0.2261
     18  O         -4.5520   -0.4790   26.8890 O.2    67  HIS67      -0.2867
     19  CB        -1.6170   -1.2600   26.5420 C.3    67  HIS67       0.0459
     20  CG        -1.8220   -2.3410   25.5420 C.3    67  HIS67       0.0936
     21  ND1       -1.4220   -3.5640   25.8550 N.3    67  HIS67      -0.1997
     22  CD2       -2.1620   -2.4000   24.2320 C.3    67  HIS67       0.1077
     23  CE1       -1.8020   -4.4120   24.9160 C.3    67  HIS67       0.1782
     24  NE2       -2.2500   -3.7440   23.9040 N.3    67  HIS67      -0.1983
     25  N         -3.7030    3.6630   24.5360 N.3    93  ALA93      -0.1231
     26  CA        -2.3620    3.2840   24.1780 C.3    93  ALA93       0.1694
     27  C         -1.8280    4.1070   22.9890 C.2    93  ALA93       0.2592
     28  O         -0.6500    4.2580   22.8460 O.2    93  ALA93      -0.2718
     29  CB        -2.3190    1.7990   23.8660 C.3    93  ALA93       0.0304
     30  N         -2.7410    4.5480   22.1230 N.am   94  THR94      -0.1953
     31  CA        -2.4840    5.5910   21.1250 C.3    94  THR94       0.1897
     32  C         -3.1650    6.8770   21.6200 C.2    94  THR94       0.2313
     33  O         -4.3930    6.8460   21.7780 O.2    94  THR94      -0.2863
     34  CB        -2.9980    5.2090   19.7490 C.3    94  THR94       0.1794
     35  OG1       -2.4290    3.9550   19.3290 O.3    94  THR94      -0.2208
     36  CG2       -2.5760    6.3390   18.6900 C.3    94  THR94       0.0378
     37  N         -2.4600    8.1000   14.2340 N.3   110  PHE110     -0.1241
     38  CA        -1.2120    7.7620   14.9690 C.3   110  PHE110      0.1605
     39  C         -0.5580    9.0620   15.4630 C.2   110  PHE110      0.2264
     40  O          0.3440    9.5870   14.8660 O.2   110  PHE110     -0.2867
     41  CB        -0.3390    6.8940   14.0880 C.3   110  PHE110      0.0534
     42  CG         0.8910    6.3080   14.7560 C.ar  110  PHE110     -0.0203
     43  CD1        0.7870    5.6130   15.9320 C.ar  110  PHE110     -0.0042
     44  CD2        2.1480    6.5040   14.1850 C.ar  110  PHE110     -0.0042
     45  CE1        1.8870    5.0220   16.5130 C.ar  110  PHE110     -0.0003
     46  CE2        3.2950    5.9390   14.7440 C.ar  110  PHE110     -0.0003
     47  CZ         3.1820    5.1730   15.9240 C.ar  110  PHE110     -0.0000
     48  N          2.6100    9.6160   20.6290 N.3   114  ASN114     -0.1240
     49  CA         2.7120    8.2090   20.9260 C.3   114  ASN114      0.1653
     50  C          4.0850    7.7970   21.4490 C.2   114  ASN114      0.2266
     51  O          5.0650    8.4290   21.0750 O.2   114  ASN114     -0.2867
     52  CB         2.3670    7.3600   19.6600 C.3   114  ASN114      0.1155
     53  CG         3.5000    7.2610   18.6580 C.2   114  ASN114      0.2627
     54  OD1        4.4290    6.4430   18.8350 O.2   114  ASN114     -0.2716
     55  ND2        3.4530    8.1000   17.6240 N.am  114  ASN114     -0.0877
     56  N          5.2230    4.5450   20.8200 N.3   116  LEU116     -0.1245
     57  CA         5.5630    3.3640   20.0600 C.3   116  LEU116      0.1561
     58  C          6.7710    3.5300   19.1230 C.2   116  LEU116      0.2260
     59  O          7.6160    2.6070   19.0420 O.2   116  LEU116     -0.2867
     60  CB         4.3660    2.9160   19.2330 C.3   116  LEU116      0.0270
     61  CG         4.6130    1.6750   18.3720 C.3   116  LEU116      0.0019
     62  CD1        4.8750    0.4450   19.2090 C.3   116  LEU116      0.0001
     63  CD2        3.4440    1.4810   17.3950 C.3   116  LEU116      0.0001
     64  N          3.5300    2.3560   26.7710 N.3   141  LEU141     -0.1245
     65  CA         2.6020    3.0440   25.8650 C.3   141  LEU141      0.1561
     66  C          1.7920    4.1520   26.5640 C.2   141  LEU141      0.2260
     67  O          0.6390    4.3830   26.2230 O.2   141  LEU141     -0.2867
     68  CB         1.6400    2.0120   25.1980 C.3   141  LEU141      0.0270
     69  CG         2.3440    0.9440   24.3920 C.3   141  LEU141      0.0019
     70  CD1        1.3010    0.0760   23.7460 C.3   141  LEU141      0.0001
     71  CD2        3.1870    1.5500   23.3330 C.3   141  LEU141      0.0001
     72  N         -8.2090   -1.9200   23.0660 N.3   174  CYS174     -0.1235
     73  CA        -7.1720   -2.3270   22.0980 C.3   174  CYS174      0.1677
     74  C         -7.7900   -3.3380   21.0930 C.2   174  CYS174      0.2270
     75  O         -8.0440   -2.9410   19.9590 O.2   174  CYS174     -0.2867
     76  CB        -5.8640   -2.8740   22.7100 C.3   174  CYS174      0.0956
     77  SG        -4.7680   -3.2850   21.3630 S.3   174  CYS174     -0.0801
     78  N         -2.0140   -5.6150   10.2220 N.3   292  VAL292     -0.1245
     79  CA        -2.4280   -5.4150   11.6150 C.3   292  VAL292      0.1561
     80  C         -1.4360   -5.9640   12.6510 C.2   292  VAL292      0.2260
     81  O         -1.1610   -5.3090   13.6890 O.2   292  VAL292     -0.2867
     82  CB        -3.8290   -5.9610   11.8550 C.3   292  VAL292      0.0252
     83  CG1       -4.3690   -5.5290   13.2470 C.3   292  VAL292      0.0019
     84  CG2       -4.7780   -5.4820   10.7480 C.3   292  VAL292      0.0019
     85  N          2.0110   -7.0450   14.6020 N.3   294  VAL294     -0.1245
     86  CA         3.2320   -6.3060   14.9460 C.3   294  VAL294      0.1561
     87  C          4.3900   -7.2270   14.6390 C.2   294  VAL294      0.2260
     88  O          4.4830   -8.3330   15.2210 O.2   294  VAL294     -0.2867
     89  CB         3.2720   -6.0120   16.4650 C.3   294  VAL294      0.0252
     90  CG1        4.6350   -5.4000   16.8760 C.3   294  VAL294      0.0019
     91  CG2        2.1730   -5.0340   16.8470 C.3   294  VAL294      0.0019
     92  N         -2.5340    1.3500   13.1300 N.3   318  ILE318     -0.1231
     93  CA        -2.6380    1.1860   14.5600 C.3   318  ILE318      0.1692
     94  C         -4.0850    1.4570   14.9950 C.2   318  ILE318      0.2592
     95  O         -4.7370    2.4210   14.5240 O.2   318  ILE318     -0.2718
     96  CB        -1.6490    2.1760   15.2710 C.3   318  ILE318      0.0266
     97  CG1       -0.1770    1.9230   14.8520 C.3   318  ILE318      0.0019
     98  CG2       -1.7970    2.1000   16.7670 C.3   318  ILE318      0.0020
     99  CD1        0.3750    0.6690   15.2730 C.3   318  ILE318      0.0001
    100  N         -4.6220    0.5950   15.9040 N.am  319  PHE319     -0.1976
    101  CA        -5.8730    0.8390   16.5990 C.3   319  PHE319      0.1639
    102  C         -6.9960    0.9990   15.5870 C.2   319  PHE319      0.2290
    103  O         -7.9540    1.7890   15.7670 O.2   319  PHE319     -0.2864
    104  CB        -5.7840    2.0340   17.5490 C.3   319  PHE319      0.0560
    105  CG        -6.8950    2.0900   18.6010 C.ar  319  PHE319     -0.0200
    106  CD1       -7.1450    1.0200   19.4690 C.ar  319  PHE319     -0.0042
    107  CD2       -7.7220    3.1910   18.7240 C.ar  319  PHE319     -0.0042
    108  CE1       -8.1760    1.0690   20.4150 C.ar  319  PHE319     -0.0003
    109  CE2       -8.7350    3.2230   19.6960 C.ar  319  PHE319     -0.0003
    110  CZ        -8.9500    2.1590   20.5140 C.ar  319  PHE319     -0.0000
@<TRIPOS>BOND
     1    78    79    1
     2    84    82    1
     3    79    82    1
     4    79    80    1
     5    82    83    1
     6    80    81    2
     7    92    93    1
     8    41    42    1
     9    41    38    1
    10    44    46   ar
    11    44    42   ar
    12    37    38    1
    13    95    94    2
    14    93    94    1
    15    93    96    1
    16    85    86    1
    17    87    86    1
    18    87    88    2
    19    46    47   ar
    20    42    43   ar
    21    97    96    1
    22    97    99    1
    23    40    39    2
    24    86    89    1
    25    38    39    1
    26    94   100   am
    27    96    98    1
    28   102   103    2
    29   102   101    1
    30   100   101    1
    31    47    45   ar
    32    43    45   ar
    33    89    91    1
    34    89    90    1
    35   101   104    1
    36    63    61    1
    37   104   105    1
    38    55    53   am
    39    61    62    1
    40    61    60    1
    41   105   107   ar
    42   105   106   ar
    43    53    54    2
    44    53    52    1
    45    36    34    1
    46   107   109   ar
    47    59    58    2
    48    58    57    1
    49    60    57    1
    50    35    34    1
    51   106   108   ar
    52    52    49    1
    53   109   110   ar
    54    34    31    1
    55    13    12    1
    56    75    74    2
    57    57    56    1
    58   108   110   ar
    59     6     5    1
    60    48    49    1
    61     7     8    1
    62     8    11    1
    63     8     9    1
    64    49    50    1
    65    51    50    2
    66    74    73    1
    67    31    32    1
    68    31    30    1
    69    12    11    1
    70    12    14    1
    71    77    76    1
    72    32    33    2
    73     5     2    1
    74     9    10    2
    75    73    76    1
    76    73    72    1
    77    30    27   am
    78     1     2    1
    79     2     3    1
    80    28    27    2
    81    27    26    1
    82    71    69    1
    83     3     4    2
    84    70    69    1
    85    29    26    1
    86    24    22    1
    87    24    23    1
    88    26    25    1
    89    22    20    1
    90    69    68    1
    91    23    21    1
    92    68    65    1
    93    20    21    1
    94    20    19    1
    95    65    66    1
    96    65    64    1
    97    67    66    2
    98    19    16    1
    99    18    17    2
   100    17    16    1
   101    16    15    1
