@<TRIPOS>MOLECULE
tmp/1mh5A00.pdb
 122 121 0 0 0
SMALL
GASTEIGER

@<TRIPOS>ATOM
      1  N         39.3400  -52.5510   42.0650 N.3    31  HIS31      -0.1241
      2  CA        38.3100  -53.5220   42.4090 C.3    31  HIS31       0.1621
      3  C         38.4850  -54.8490   41.6740 C.2    31  HIS31       0.2264
      4  O         39.2170  -54.9300   40.6780 O.2    31  HIS31      -0.2867
      5  CB        36.9170  -52.9700   42.1210 C.3    31  HIS31       0.0745
      6  CG        35.8460  -53.5780   42.9720 C.ar   31  HIS31       0.0817
      7  ND1       34.5150  -53.5720   42.6180 N.ar   31  HIS31      -0.2268
      8  CD2       35.9100  -54.1850   44.1840 C.ar   31  HIS31       0.1154
      9  CE1       33.8040  -54.1490   43.5720 C.ar   31  HIS31       0.1986
     10  NE2       34.6270  -54.5290   44.5330 N.ar   31  HIS31      -0.2212
     11  N         36.5750  -56.4260   39.7060 N.3    33  ASN33      -0.1240
     12  CA        36.1870  -56.3470   38.3030 C.3    33  ASN33       0.1653
     13  C         37.3340  -55.7970   37.4560 C.2    33  ASN33       0.2266
     14  O         37.1940  -55.6070   36.2450 O.2    33  ASN33      -0.2867
     15  CB        34.9700  -55.4480   38.1530 C.3    33  ASN33       0.1155
     16  CG        35.1750  -54.1050   38.7910 C.2    33  ASN33       0.2627
     17  OD1       34.9060  -53.9220   39.9780 O.2    33  ASN33      -0.2716
     18  ND2       35.6850  -53.1590   38.0160 N.am   33  ASN33      -0.0877
     19  N         38.4160  -47.1500   40.8060 N.3    37  TYR37      -0.1241
     20  CA        37.3910  -46.1440   40.9370 C.3    37  TYR37       0.1605
     21  C         37.9170  -44.8270   41.4810 C.2    37  TYR37       0.2264
     22  O         37.7040  -44.4620   42.6470 O.2    37  TYR37      -0.2867
     23  CB        36.2550  -46.6950   41.7930 C.3    37  TYR37       0.0534
     24  CG        35.5300  -47.8080   41.0840 C.ar   37  TYR37      -0.0201
     25  CD1       36.0060  -49.1130   41.1270 C.ar   37  TYR37      -0.0009
     26  CD2       34.4160  -47.5360   40.2900 C.ar   37  TYR37      -0.0009
     27  CE1       35.3870  -50.1290   40.3880 C.ar   37  TYR37       0.0417
     28  CE2       33.7920  -48.5320   39.5520 C.ar   37  TYR37       0.0417
     29  CZ        34.2810  -49.8290   39.6020 C.ar   37  TYR37       0.1957
     30  OH        33.6660  -50.8110   38.8570 O.3    37  TYR37      -0.2866
     31  N         38.3800  -40.6210   40.3030 N.3    39  TYR39      -0.1241
     32  CA        38.0120  -39.5390   39.3910 C.3    39  TYR39       0.1605
     33  C         38.9460  -38.3510   39.6370 C.2    39  TYR39       0.2264
     34  O         39.4260  -38.1430   40.7650 O.2    39  TYR39      -0.2867
     35  CB        36.5920  -39.0040   39.6360 C.3    39  TYR39       0.0534
     36  CG        35.4440  -39.8170   39.0840 C.ar   39  TYR39      -0.0201
     37  CD1       35.3530  -40.1110   37.7210 C.ar   39  TYR39      -0.0009
     38  CD2       34.4060  -40.2300   39.9170 C.ar   39  TYR39      -0.0009
     39  CE1       34.2470  -40.7940   37.2000 C.ar   39  TYR39       0.0417
     40  CE2       33.2890  -40.9110   39.4150 C.ar   39  TYR39       0.0417
     41  CZ        33.2200  -41.1860   38.0550 C.ar   39  TYR39       0.1957
     42  OH        32.1200  -41.8300   37.5620 O.3    39  TYR39      -0.2866
     43  N         38.8110  -34.2350   38.8460 N.3    41  PHE41      -0.1241
     44  CA        38.0370  -33.0940   38.3530 C.3    41  PHE41       0.1605
     45  C         38.8630  -31.7830   38.3460 C.2    41  PHE41       0.2264
     46  O         39.7480  -31.5670   39.1670 O.2    41  PHE41      -0.2867
     47  CB        36.8180  -32.7940   39.2240 C.3    41  PHE41       0.0534
     48  CG        35.8880  -33.9330   39.3930 C.ar   41  PHE41      -0.0203
     49  CD1       36.1050  -34.8780   40.3870 C.ar   41  PHE41      -0.0042
     50  CD2       34.7710  -34.0530   38.5600 C.ar   41  PHE41      -0.0042
     51  CE1       35.2000  -35.9520   40.5610 C.ar   41  PHE41      -0.0003
     52  CE2       33.8600  -35.1210   38.7170 C.ar   41  PHE41      -0.0003
     53  CZ        34.0770  -36.0700   39.7180 C.ar   41  PHE41      -0.0000
     54  N         38.9820  -38.0110   43.6070 N.3    94  LEU94      -0.1245
     55  CA        37.8230  -38.5510   44.3140 C.3    94  LEU94       0.1561
     56  C         37.6810  -40.0540   44.1230 C.2    94  LEU94       0.2260
     57  O         37.7870  -40.5580   43.0040 O.2    94  LEU94      -0.2867
     58  CB        36.5410  -37.9030   43.8110 C.3    94  LEU94       0.0270
     59  CG        35.1770  -38.5600   44.1460 C.3    94  LEU94       0.0019
     60  CD1       34.8030  -38.3370   45.5800 C.3    94  LEU94       0.0001
     61  CD2       34.1000  -37.9330   43.2710 C.3    94  LEU94       0.0001
     62  N         35.2680  -43.4700   44.4690 N.3    96  HIS96      -0.1226
     63  CA        33.8680  -43.8600   44.5110 C.3    96  HIS96       0.1752
     64  C         33.8180  -45.3730   44.5750 C.2    96  HIS96       0.2596
     65  O         32.9260  -46.0090   44.0070 O.2    96  HIS96      -0.2718
     66  CB        33.0630  -43.3410   43.3090 C.3    96  HIS96       0.0759
     67  CG        33.6430  -43.6750   41.9690 C.ar   96  HIS96       0.0818
     68  ND1       32.8530  -44.0330   40.8930 N.ar   96  HIS96      -0.2268
     69  CD2       34.9120  -43.5950   41.4950 C.ar   96  HIS96       0.1154
     70  CE1       33.6080  -44.1520   39.8150 C.ar   96  HIS96       0.1986
     71  NE2       34.8600  -43.8900   40.1530 N.ar   96  HIS96      -0.2212
     72  N         34.8110  -45.9340   45.2670 N.am   97  LEU97      -0.1966
     73  CA        34.9080  -47.3710   45.4690 C.3    97  LEU97       0.1728
     74  C         34.0230  -47.7440   46.6530 C.2    97  LEU97       0.2616
     75  O         33.3420  -48.7690   46.6240 O.2    97  LEU97      -0.2715
     76  CB        36.3420  -47.7830   45.7860 C.3    97  LEU97       0.0311
     77  CG        36.4470  -49.2540   46.2040 C.3    97  LEU97       0.0022
     78  CD1       36.3270  -50.1570   44.9560 C.3    97  LEU97       0.0001
     79  CD2       37.7550  -49.4850   46.9430 C.3    97  LEU97       0.0001
     80  N         34.0340  -46.8990   47.6880 N.am   98  GLU98      -0.1963
     81  CA        33.2320  -47.1510   48.8870 C.3    98  GLU98       0.1733
     82  C         32.4800  -45.9320   49.3910 C.2    98  GLU98       0.2616
     83  O         32.9550  -44.8000   49.2800 O.2    98  GLU98      -0.2715
     84  CB        34.1000  -47.6040   50.0440 C.3    98  GLU98       0.0429
     85  CG        34.8440  -48.9050   49.8900 C.3    98  GLU98       0.1163
     86  CD        35.6030  -49.2440   51.1630 C.2    98  GLU98       0.3649
     87  OE1       35.9970  -48.2970   51.8830 O.co2  98  GLU98      -0.2457
     88  OE2       35.8120  -50.4440   51.4410 O.co2  98  GLU98      -0.2457
     89  N         31.3030  -46.1840   49.9540 N.am   99  TYR99      -0.1974
     90  CA        30.4960  -45.1400   50.5590 C.3    99  TYR99       0.1639
     91  C         31.1220  -44.9780   51.9540 C.2    99  TYR99       0.2290
     92  O         31.5520  -45.9570   52.5420 O.2    99  TYR99      -0.2864
     93  CB        29.0400  -45.6020   50.6800 C.3    99  TYR99       0.0560
     94  CG        28.2610  -45.5180   49.3870 C.ar   99  TYR99      -0.0198
     95  CD1       27.9190  -44.2770   48.8580 C.ar   99  TYR99      -0.0009
     96  CD2       27.8790  -46.6710   48.6810 C.ar   99  TYR99      -0.0009
     97  CE1       27.2260  -44.1550   47.6700 C.ar   99  TYR99       0.0417
     98  CE2       27.1710  -46.5620   47.4550 C.ar   99  TYR99       0.0417
     99  CZ        26.8570  -45.2870   46.9650 C.ar   99  TYR99       0.1957
    100  OH        26.2040  -45.0830   45.7700 O.3    99  TYR99      -0.2866
    101  N         31.5960  -41.5240   49.6280 N.3   101  PHE101     -0.1241
    102  CA        32.5820  -41.0940   48.6260 C.3   101  PHE101      0.1605
    103  C         33.3330  -39.9120   49.2660 C.2   101  PHE101      0.2264
    104  O         32.7620  -39.1560   50.0370 O.2   101  PHE101     -0.2867
    105  CB        31.9000  -40.6340   47.3240 C.3   101  PHE101      0.0534
    106  CG        31.0780  -41.7110   46.6480 C.ar  101  PHE101     -0.0203
    107  CD1       31.5040  -43.0300   46.6540 C.ar  101  PHE101     -0.0042
    108  CD2       29.8660  -41.3960   46.0270 C.ar  101  PHE101     -0.0042
    109  CE1       30.7170  -44.0430   46.0490 C.ar  101  PHE101     -0.0003
    110  CE2       29.0850  -42.3770   45.4260 C.ar  101  PHE101     -0.0003
    111  CZ        29.5140  -43.7090   45.4440 C.ar  101  PHE101     -0.0000
    112  N         36.5210  -36.7540   48.7520 N.3   103  PHE103     -0.1241
    113  CA        37.3920  -35.8970   47.9450 C.3   103  PHE103      0.1605
    114  C         38.7450  -35.5970   48.5730 C.2   103  PHE103      0.2264
    115  O         38.8910  -35.6160   49.8080 O.2   103  PHE103     -0.2867
    116  CB        36.7420  -34.5310   47.7260 C.3   103  PHE103      0.0534
    117  CG        35.5360  -34.5550   46.8370 C.ar  103  PHE103     -0.0203
    118  CD1       35.6750  -34.4830   45.4590 C.ar  103  PHE103     -0.0042
    119  CD2       34.2640  -34.6270   47.3830 C.ar  103  PHE103     -0.0042
    120  CE1       34.5510  -34.4750   44.6090 C.ar  103  PHE103     -0.0003
    121  CE2       33.1600  -34.6250   46.5650 C.ar  103  PHE103     -0.0003
    122  CZ        33.3040  -34.5460   45.1560 C.ar  103  PHE103     -0.0000
@<TRIPOS>BOND
     1    14    13    2
     2    39    37   ar
     3    39    41   ar
     4    13    12    1
     5    42    41    1
     6    37    36   ar
     7    18    16   am
     8    41    40   ar
     9    15    12    1
    10    15    16    1
    11    12    11    1
    12    45    44    1
    13    45    46    2
    14    44    43    1
    15    44    47    1
    16    50    52   ar
    17    50    48   ar
    18    52    53   ar
    19    16    17    2
    20    30    29    1
    21    36    35    1
    22    36    38   ar
    23    47    48    1
    24    32    35    1
    25    32    33    1
    26    32    31    1
    27    48    49   ar
    28    40    38   ar
    29    28    29   ar
    30    28    26   ar
    31    29    27   ar
    32    33    34    2
    33    53    51   ar
    34    70    71   ar
    35    70    68   ar
    36    71    69   ar
    37    26    24   ar
    38    49    51   ar
    39    27    25   ar
    40     4     3    2
    41    19    20    1
    42    68    67   ar
    43    20    21    1
    44    20    23    1
    45    24    25   ar
    46    24    23    1
    47    21    22    2
    48    69    67   ar
    49     3     2    1
    50    67    66    1
    51     1     2    1
    52     5     2    1
    53     5     6    1
    54     7     6   ar
    55     7     9   ar
    56     6     8   ar
    57    57    56    2
    58    61    59    1
    59    66    63    1
    60     9    10   ar
    61    54    55    1
    62    58    59    1
    63    58    55    1
    64    65    64    2
    65    56    55    1
    66    59    60    1
    67     8    10   ar
    68    62    63    1
    69    63    64    1
    70    64    72   am
    71   120   122   ar
    72   120   118   ar
    73    78    77    1
    74   122   121   ar
    75    72    73    1
    76   110   111   ar
    77   110   108   ar
    78   111   109   ar
    79   118   117   ar
    80    73    76    1
    81    73    74    1
    82   100    99    1
    83    76    77    1
    84   108   106   ar
    85   109   107   ar
    86    77    79    1
    87   121   119   ar
    88    75    74    2
    89   106   107   ar
    90   106   105    1
    91    74    80   am
    92   117   119   ar
    93   117   116    1
    94    99    98   ar
    95    99    97   ar
    96   105   102    1
    97    98    96   ar
    98    97    95   ar
    99    80    81    1
   100   116   113    1
   101   113   114    1
   102   113   112    1
   103   114   115    2
   104   102   103    1
   105   102   101    1
   106    96    94   ar
   107    95    94   ar
   108    81    82    1
   109    81    84    1
   110   103   104    2
   111    83    82    2
   112    94    93    1
   113    82    89   am
   114    85    84    1
   115    85    86    1
   116    89    90    1
   117    90    93    1
   118    90    91    1
   119    86    88   ar
   120    86    87   ar
   121    91    92    2
