@<TRIPOS>MOLECULE
tmp/1mh5B00.pdb
 108 104 0 0 0
SMALL
GASTEIGER

@<TRIPOS>ATOM
      1  N         22.2870  -41.5610   38.7090 N.3    32  TRP32      -0.1241
      2  CA        22.2840  -41.2650   40.1310 C.3    32  TRP32       0.1605
      3  C         22.3590  -39.7460   40.2730 C.2    32  TRP32       0.2264
      4  O         22.9910  -39.0870   39.4580 O.2    32  TRP32      -0.2867
      5  CB        23.5410  -41.8220   40.8060 C.3    32  TRP32       0.0550
      6  CG        23.5370  -43.2790   41.1400 C.ar   32  TRP32       0.0003
      7  CD1       24.0530  -44.3030   40.3900 C.ar   32  TRP32       0.0946
      8  CD2       23.0720  -43.8700   42.3600 C.ar   32  TRP32       0.0152
      9  NE1       23.9440  -45.4920   41.0730 N.ar   32  TRP32      -0.2442
     10  CE2       23.3450  -45.2560   42.2840 C.ar   32  TRP32       0.0810
     11  CE3       22.4550  -43.3610   43.5150 C.ar   32  TRP32       0.0012
     12  CZ2       23.0240  -46.1390   43.3190 C.ar   32  TRP32       0.0191
     13  CZ3       22.1370  -44.2410   44.5470 C.ar   32  TRP32       0.0001
     14  CH2       22.4240  -45.6160   44.4370 C.ar   32  TRP32       0.0015
     15  N         23.7080  -36.9550   42.8720 N.3    34  ASN34      -0.1240
     16  CA        24.5450  -36.7410   44.0480 C.3    34  ASN34       0.1653
     17  C         24.5080  -35.2750   44.4560 C.2    34  ASN34       0.2266
     18  O         24.3600  -34.3960   43.6180 O.2    34  ASN34      -0.2867
     19  CB        26.0070  -37.0510   43.7380 C.3    34  ASN34       0.1155
     20  CG        26.2560  -38.5170   43.4610 C.2    34  ASN34       0.2627
     21  OD1       25.9080  -39.0360   42.3850 O.2    34  ASN34      -0.2716
     22  ND2       26.8690  -39.1880   44.4070 N.am   34  ASN34      -0.0877
     23  N         26.6770  -32.2210   46.5720 N.3    36  VAL36      -0.1245
     24  CA        28.0020  -31.8780   47.0930 C.3    36  VAL36       0.1561
     25  C         28.0360  -30.4790   47.7170 C.2    36  VAL36       0.2260
     26  O         27.4180  -29.5140   47.2390 O.2    36  VAL36      -0.2867
     27  CB        29.0970  -31.9650   45.9610 C.3    36  VAL36       0.0252
     28  CG1       30.4550  -31.5100   46.4750 C.3    36  VAL36       0.0019
     29  CG2       29.2080  -33.4110   45.4590 C.3    36  VAL36       0.0019
     30  N         31.1340  -34.7050   49.7720 N.3    46  TRP46      -0.1241
     31  CA        29.9900  -35.5190   49.3440 C.3    46  TRP46       0.1605
     32  C         28.9620  -35.6290   50.4690 C.2    46  TRP46       0.2264
     33  O         29.2810  -36.0590   51.5850 O.2    46  TRP46      -0.2867
     34  CB        30.4340  -36.9230   48.9840 C.3    46  TRP46       0.0550
     35  CG        29.3380  -37.7470   48.4260 C.ar   46  TRP46       0.0003
     36  CD1       28.8060  -37.6760   47.1530 C.ar   46  TRP46       0.0946
     37  CD2       28.6500  -38.8130   49.0890 C.ar   46  TRP46       0.0152
     38  NE1       27.8300  -38.6430   46.9930 N.ar   46  TRP46      -0.2442
     39  CE2       27.7170  -39.3580   48.1570 C.ar   46  TRP46       0.0810
     40  CE3       28.7290  -39.3680   50.3760 C.ar   46  TRP46       0.0012
     41  CZ2       26.8740  -40.4360   48.4780 C.ar   46  TRP46       0.0191
     42  CZ3       27.8930  -40.4350   50.6970 C.ar   46  TRP46       0.0001
     43  CH2       26.9740  -40.9590   49.7490 C.ar   46  TRP46       0.0015
     44  N         23.5570  -39.4210   47.7970 N.3    49  ASN49      -0.1240
     45  CA        22.9940  -39.6110   46.4650 C.3    49  ASN49       0.1653
     46  C         21.6950  -40.4190   46.4840 C.2    49  ASN49       0.2266
     47  O         21.2920  -40.9810   47.5270 O.2    49  ASN49      -0.2867
     48  CB        24.0290  -40.2320   45.4930 C.3    49  ASN49       0.1155
     49  CG        24.4030  -41.6740   45.8350 C.2    49  ASN49       0.2627
     50  OD1       25.3950  -42.2040   45.3030 O.2    49  ASN49      -0.2716
     51  ND2       23.6230  -42.3190   46.7010 N.am   49  ASN49      -0.0877
     52  N         24.8600  -33.3260   41.1190 N.3    96  VAL96      -0.1245
     53  CA        25.7180  -33.8780   40.1100 C.3    96  VAL96       0.1561
     54  C         25.1080  -35.1910   39.5970 C.2    96  VAL96       0.2260
     55  O         24.6820  -36.0040   40.3970 O.2    96  VAL96      -0.2867
     56  CB        27.0920  -34.1890   40.7110 C.3    96  VAL96       0.0252
     57  CG1       28.0780  -34.4780   39.5910 C.3    96  VAL96       0.0019
     58  CG2       27.5950  -32.9780   41.5730 C.3    96  VAL96       0.0019
     59  N         25.4490  -38.8770   37.4800 N.3    98  LYS98      -0.1245
     60  CA        26.4420  -39.8740   37.0730 C.3    98  LYS98       0.1561
     61  C         25.7290  -41.1640   36.6000 C.2    98  LYS98       0.2260
     62  O         25.0480  -41.8080   37.3940 O.2    98  LYS98      -0.2867
     63  CB        27.3740  -40.2000   38.2370 C.3    98  LYS98       0.0271
     64  CG        28.5200  -41.1340   37.8660 C.3    98  LYS98       0.0035
     65  CD        28.2120  -42.5580   38.2880 C.3    98  LYS98       0.0206
     66  CE        29.3050  -43.5440   37.8300 C.3    98  LYS98       0.1093
     67  NZ        28.8030  -44.9580   37.8210 N.3    98  LYS98      -0.1314
     68  N         24.4140  -44.6950   35.8190 N.3   100  TYR100     -0.1241
     69  CA        24.4610  -45.8900   36.6340 C.3   100  TYR100      0.1605
     70  C         25.4660  -46.9190   36.1090 C.2   100  TYR100      0.2264
     71  O         26.1120  -47.6110   36.8940 O.2   100  TYR100     -0.2867
     72  CB        23.0550  -46.4720   36.7210 C.3   100  TYR100      0.0534
     73  CG        22.9610  -47.7080   37.5730 C.ar  100  TYR100     -0.0201
     74  CD1       23.3830  -48.9470   37.0870 C.ar  100  TYR100     -0.0009
     75  CD2       22.4480  -47.6430   38.8670 C.ar  100  TYR100     -0.0009
     76  CE1       23.2910  -50.0910   37.8740 C.ar  100  TYR100      0.0417
     77  CE2       22.3540  -48.7780   39.6590 C.ar  100  TYR100      0.0417
     78  CZ        22.7800  -49.9950   39.1550 C.ar  100  TYR100      0.1957
     79  OH        22.7150  -51.1120   39.9440 O.3   100  TYR100     -0.2866
     80  N         30.9190  -45.0710   33.1690 N.3   103  ASP103     -0.1239
     81  CA        31.6860  -44.3830   34.1930 C.3   103  ASP103      0.1674
     82  C         32.1790  -42.9710   33.8420 C.2   103  ASP103      0.2266
     83  O         32.2830  -42.1240   34.7230 O.2   103  ASP103     -0.2867
     84  CB        32.8590  -45.2710   34.5940 C.3   103  ASP103      0.1410
     85  CG        33.4220  -44.9090   35.9330 C.2   103  ASP103      0.3668
     86  OD1       32.6440  -44.9200   36.9080 O.co2 103  ASP103     -0.2456
     87  OD2       34.6350  -44.6140   36.0170 O.co2 103  ASP103     -0.2456
     88  N         29.8010  -37.9310   33.9990 N.3   106  VAL106     -0.1245
     89  CA        29.5340  -37.2600   35.2590 C.3   106  VAL106      0.1561
     90  C         29.3140  -35.8260   34.8540 C.2   106  VAL106      0.2260
     91  O         30.0640  -35.2910   34.0580 O.2   106  VAL106     -0.2867
     92  CB        30.7680  -37.3380   36.2130 C.3   106  VAL106      0.0252
     93  CG1       30.4770  -36.6350   37.5220 C.3   106  VAL106      0.0019
     94  CG2       31.1690  -38.7990   36.4400 C.3   106  VAL106      0.0019
     95  N         28.1750  -31.8510   36.4920 N.3   108  TRP108     -0.1241
     96  CA        27.8380  -30.9530   37.6150 C.3   108  TRP108      0.1605
     97  C         26.9200  -29.7580   37.2990 C.2   108  TRP108      0.2264
     98  O         27.1570  -29.0070   36.3520 O.2   108  TRP108     -0.2867
     99  CB        29.1170  -30.3840   38.2400 C.3   108  TRP108      0.0550
    100  CG        30.0540  -31.3640   38.8660 C.ar  108  TRP108      0.0003
    101  CD1       30.7430  -32.3410   38.2350 C.ar  108  TRP108      0.0946
    102  CD2       30.4990  -31.3780   40.2370 C.ar  108  TRP108      0.0152
    103  NE1       31.5990  -32.9680   39.1140 N.ar  108  TRP108     -0.2442
    104  CE2       31.4660  -32.3920   40.3510 C.ar  108  TRP108      0.0810
    105  CE3       30.1750  -30.6230   41.3700 C.ar  108  TRP108      0.0012
    106  CZ2       32.1250  -32.6790   41.5560 C.ar  108  TRP108      0.0191
    107  CZ3       30.8290  -30.9060   42.5730 C.ar  108  TRP108      0.0001
    108  CH2       31.7940  -31.9350   42.6500 C.ar  108  TRP108      0.0015
@<TRIPOS>BOND
     1    80    81    1
     2    82    81    1
     3    82    83    2
     4    88    89    1
     5    91    90    2
     6    81    84    1
     7    84    85    1
     8    90    89    1
     9    89    92    1
    10    68    69    1
    11    85    87   ar
    12    85    86   ar
    13    70    69    1
    14    70    71    2
    15    92    94    1
    16    92    93    1
    17    98    97    2
    18    95    96    1
    19    61    60    1
    20    61    62    2
    21    69    72    1
    22    72    73    1
    23    60    59    1
    24    60    63    1
    25    74    73   ar
    26    74    76   ar
    27    97    96    1
    28    73    75   ar
    29    96    99    1
    30    67    66    1
    31    66    65    1
    32    64    63    1
    33    64    65    1
    34    76    78   ar
    35   101   100   ar
    36   101   103   ar
    37    99   100    1
    38     1     2    1
    39   100   102   ar
    40    75    77   ar
    41   103   104   ar
    42    78    77   ar
    43    78    79    1
    44     4     3    2
    45    57    56    1
    46    54    53    1
    47    54    55    2
    48    53    56    1
    49    53    52    1
    50     2     3    1
    51     2     5    1
    52   102   104   ar
    53   102   105   ar
    54   104   106   ar
    55     7     9   ar
    56     7     6   ar
    57    56    58    1
    58     5     6    1
    59     9    10   ar
    60     6     8   ar
    61   105   107   ar
    62   106   108   ar
    63    10     8   ar
    64    10    12   ar
    65     8    11   ar
    66    21    20    2
    67   107   108   ar
    68    15    16    1
    69    12    14   ar
    70    20    19    1
    71    20    22   am
    72    11    13   ar
    73    18    17    2
    74    19    16    1
    75    16    17    1
    76    14    13   ar
    77    50    49    2
    78    29    27    1
    79    48    49    1
    80    48    45    1
    81    49    51   am
    82    27    28    1
    83    27    24    1
    84    45    46    1
    85    45    44    1
    86    46    47    2
    87    23    24    1
    88    38    36   ar
    89    38    39   ar
    90    24    25    1
    91    36    35   ar
    92    26    25    2
    93    39    41   ar
    94    39    37   ar
    95    35    34    1
    96    35    37   ar
    97    41    43   ar
    98    34    31    1
    99    37    40   ar
   100    31    30    1
   101    31    32    1
   102    43    42   ar
   103    40    42   ar
   104    32    33    2
