@<TRIPOS>MOLECULE
tmp/1mhwC00.pdb
 77 76 0 0 0
SMALL
GASTEIGER

@<TRIPOS>ATOM
      1  N        -23.8450   13.1590  131.8080 N.3    18  ASN18      -0.1225
      2  CA       -22.4480   13.4480  131.4980 C.3    18  ASN18       0.1785
      3  C        -21.8490   14.4760  132.4840 C.2    18  ASN18       0.2597
      4  O        -22.2350   15.6450  132.4680 O.2    18  ASN18      -0.2718
      5  CB       -22.3410   13.9780  130.0630 C.3    18  ASN18       0.1169
      6  CG       -20.9230   13.9290  129.5280 C.2    18  ASN18       0.2627
      7  OD1      -19.9570   14.0990  130.2850 O.2    18  ASN18      -0.2716
      8  ND2      -20.7810   13.6900  128.2080 N.am   18  ASN18      -0.0877
      9  N        -20.9280   14.0320  133.3310 N.am   19  GLN19      -0.1965
     10  CA       -20.3100   14.9230  134.3170 C.3    19  GLN19       0.1733
     11  C        -19.3440   15.9320  133.6880 C.2    19  GLN19       0.2616
     12  O        -19.0310   16.9570  134.2950 O.2    19  GLN19      -0.2715
     13  CB       -19.5730   14.1100  135.3820 C.3    19  GLN19       0.0408
     14  CG       -18.2980   13.4160  134.9050 C.3    19  GLN19       0.0908
     15  CD       -17.7560   12.4720  135.9570 C.2    19  GLN19       0.2608
     16  OE1      -18.1810   11.3250  136.0570 O.2    19  GLN19      -0.2717
     17  NE2      -16.8350   12.9630  136.7730 N.am   19  GLN19      -0.0878
     18  N        -18.8850   15.6370  132.4730 N.am   20  GLY20      -0.1955
     19  CA       -17.9720   16.5370  131.8070 C.3    20  GLY20       0.1869
     20  C        -16.6470   16.6410  132.5480 C.2    20  GLY20       0.2309
     21  O        -16.2920   15.7740  133.3510 O.2    20  GLY20      -0.2863
     22  N        -11.0140    3.2030  138.5190 N.3   137  ALA137     -0.1231
     23  CA       -11.1570    3.4660  137.0940 C.3   137  ALA137      0.1694
     24  C         -9.9300    4.1840  136.5430 C.2   137  ALA137      0.2593
     25  O         -9.9570    4.7090  135.4300 O.2   137  ALA137     -0.2718
     26  CB       -12.3930    4.3160  136.8600 C.3   137  ALA137      0.0304
     27  N         -8.8560    4.1830  137.3270 N.am  138  GLY138     -0.1942
     28  CA        -7.6400    4.8730  136.9270 C.3   138  GLY138      0.2014
     29  C         -6.7290    4.1700  135.9430 C.2   138  GLY138      0.2638
     30  O         -5.5050    4.1760  136.1220 O.2   138  GLY138     -0.2714
     31  N         -7.3110    3.5540  134.9190 N.am  139  HIS139     -0.1973
     32  CA        -6.5470    2.8640  133.8800 C.3   139  HIS139      0.1656
     33  C         -7.0900    3.1850  132.4960 C.2   139  HIS139      0.2291
     34  O         -8.3020    3.3650  132.3320 O.2   139  HIS139     -0.2864
     35  CB        -6.5970    1.3510  134.0820 C.3   139  HIS139      0.0771
     36  CG        -6.1140    0.9190  135.4270 C.ar  139  HIS139      0.0820
     37  ND1       -6.9410    0.8610  136.5270 N.ar  139  HIS139     -0.2267
     38  CD2       -4.8700    0.6270  135.8730 C.ar  139  HIS139      0.1154
     39  CE1       -6.2260    0.5570  137.5960 C.ar  139  HIS139      0.1986
     40  NE2       -4.9650    0.4100  137.2270 N.ar  139  HIS139     -0.2212
     41  N        -10.1600    1.3330  131.1670 N.3   142  PHE142     -0.1227
     42  CA       -11.5010    1.7700  131.5110 C.3   142  PHE142      0.1736
     43  C        -11.9160    2.9210  130.5940 C.2   142  PHE142      0.2595
     44  O        -13.0320    2.9570  130.1110 O.2   142  PHE142     -0.2718
     45  CB       -11.5670    2.2480  132.9650 C.3   142  PHE142      0.0547
     46  CG       -12.9700    2.5090  133.4470 C.ar  142  PHE142     -0.0202
     47  CD1      -13.7900    1.4510  133.8330 C.ar  142  PHE142     -0.0042
     48  CD2      -13.4780    3.8070  133.4940 C.ar  142  PHE142     -0.0042
     49  CE1      -15.1050    1.6790  134.2620 C.ar  142  PHE142     -0.0003
     50  CE2      -14.7930    4.0480  133.9220 C.ar  142  PHE142     -0.0003
     51  CZ       -15.6040    2.9750  134.3060 C.ar  142  PHE142     -0.0000
     52  N        -11.0060    3.8650  130.3580 N.am  143  LEU143     -0.1980
     53  CA       -11.3270    4.9880  129.4770 C.3   143  LEU143      0.1596
     54  C        -11.7360    4.5160  128.0700 C.2   143  LEU143      0.2287
     55  O        -12.6550    5.0660  127.4440 O.2   143  LEU143     -0.2864
     56  CB       -10.1220    5.9150  129.3380 C.3   143  LEU143      0.0297
     57  CG       -10.3450    7.1160  128.4100 C.3   143  LEU143      0.0022
     58  CD1      -11.5290    7.9550  128.9270 C.3   143  LEU143      0.0001
     59  CD2       -9.0710    7.9650  128.3500 C.3   143  LEU143      0.0001
     60  N        -11.3770    5.4520  142.8920 N.3   161  ASP161     -0.1225
     61  CA       -11.3710    6.8630  142.5620 C.3   161  ASP161      0.1805
     62  C        -12.5580    7.3420  141.7210 C.2   161  ASP161      0.2597
     63  O        -12.6410    8.5380  141.3930 O.2   161  ASP161     -0.2718
     64  CB       -10.0550    7.1990  141.8360 C.3   161  ASP161      0.1424
     65  CG        -9.9530    6.5600  140.4540 C.2   161  ASP161      0.3668
     66  OD1      -10.8110    5.7140  140.0900 O.co2 161  ASP161     -0.2456
     67  OD2       -8.9940    6.9090  139.7220 O.co2 161  ASP161     -0.2456
     68  N        -13.4830    6.4460  141.3880 N.am  162  HIS162     -0.1975
     69  CA       -14.6150    6.8280  140.5380 C.3   162  HIS162      0.1656
     70  C        -15.9790    6.3420  141.0700 C.2   162  HIS162      0.2291
     71  O        -16.1810    5.1580  141.2880 O.2   162  HIS162     -0.2864
     72  CB       -14.3480    6.2980  139.1220 C.3   162  HIS162      0.0771
     73  CG       -15.3520    6.7310  138.1010 C.ar  162  HIS162      0.0820
     74  ND1      -15.8960    7.9990  138.0800 N.ar  162  HIS162     -0.2267
     75  CD2      -15.8690    6.0810  137.0290 C.ar  162  HIS162      0.1154
     76  CE1      -16.7020    8.1090  137.0380 C.ar  162  HIS162      0.1986
     77  NE2      -16.7030    6.9620  136.3860 N.ar  162  HIS162     -0.2212
@<TRIPOS>BOND
     1    55    54    2
     2    54    53    1
     3     8     6   am
     4    59    57    1
     5    57    58    1
     6    57    56    1
     7    56    53    1
     8    53    52    1
     9     6     5    1
    10     6     7    2
    11     5     2    1
    12    44    43    2
    13    52    43   am
    14    43    42    1
    15    41    42    1
    16     2     1    1
    17     2     3    1
    18    42    45    1
    19    19    18    1
    20    19    20    1
    21    34    33    2
    22     4     3    2
    23    18    11   am
    24     3     9   am
    25    33    32    1
    26    20    21    2
    27    45    46    1
    28     9    10    1
    29    46    48   ar
    30    46    47   ar
    31    48    50   ar
    32    11    12    2
    33    11    10    1
    34    47    49   ar
    35    32    35    1
    36    32    31    1
    37    50    51   ar
    38    35    36    1
    39    49    51   ar
    40    10    13    1
    41    14    13    1
    42    14    15    1
    43    31    29   am
    44    36    38   ar
    45    36    37   ar
    46    25    24    2
    47    38    40   ar
    48    29    30    2
    49    29    28    1
    50    15    16    2
    51    15    17   am
    52    77    75   ar
    53    77    76   ar
    54    37    39   ar
    55    24    23    1
    56    24    27   am
    57    26    23    1
    58    28    27    1
    59    75    73   ar
    60    76    74   ar
    61    23    22    1
    62    40    39   ar
    63    74    73   ar
    64    73    72    1
    65    72    69    1
    66    67    65   ar
    67    66    65   ar
    68    65    64    1
    69    69    70    1
    70    69    68    1
    71    70    71    2
    72    68    62   am
    73    63    62    2
    74    62    61    1
    75    64    61    1
    76    61    60    1
