@<TRIPOS>MOLECULE
tmp/1mhwC01.pdb
 161 157 0 0 0
SMALL
GASTEIGER

@<TRIPOS>ATOM
      1  N        -20.9280   14.0320  133.3310 N.3    19  GLN19      -0.1231
      2  CA       -20.3100   14.9230  134.3170 C.3    19  GLN19       0.1698
      3  C        -19.3440   15.9320  133.6880 C.2    19  GLN19       0.2593
      4  O        -19.0310   16.9570  134.2950 O.2    19  GLN19      -0.2718
      5  CB       -19.5730   14.1100  135.3820 C.3    19  GLN19       0.0381
      6  CG       -18.2980   13.4160  134.9050 C.3    19  GLN19       0.0905
      7  CD       -17.7560   12.4720  135.9570 C.2    19  GLN19       0.2608
      8  OE1      -18.1810   11.3250  136.0570 O.2    19  GLN19      -0.2717
      9  NE2      -16.8350   12.9630  136.7730 N.am   19  GLN19      -0.0878
     10  N        -18.8850   15.6370  132.4730 N.am   20  GLY20      -0.1942
     11  CA       -17.9720   16.5370  131.8070 C.3    20  GLY20       0.2014
     12  C        -16.6470   16.6410  132.5480 C.2    20  GLY20       0.2639
     13  O        -16.2920   15.7740  133.3510 O.2    20  GLY20      -0.2714
     14  N        -15.9230   17.7220  132.2890 N.am   21  GLN21      -0.1963
     15  CA       -14.6170   17.9380  132.9040 C.3    21  GLN21       0.1733
     16  C        -14.7390   18.5010  134.3180 C.2    21  GLN21       0.2616
     17  O        -14.3710   19.6460  134.6120 O.2    21  GLN21      -0.2715
     18  CB       -13.7950   18.8710  132.0180 C.3    21  GLN21       0.0408
     19  CG       -12.3250   19.0180  132.4160 C.3    21  GLN21       0.0908
     20  CD       -11.5390   19.7380  131.3290 C.2    21  GLN21       0.2608
     21  OE1      -10.9820   19.1100  130.4180 O.2    21  GLN21      -0.2717
     22  NE2      -11.5280   21.0610  131.3920 N.am   21  GLN21      -0.0878
     23  N        -15.2480   17.6490  135.1930 N.am   22  CYS22      -0.1954
     24  CA       -15.4880   17.9890  136.5840 C.3    22  CYS22       0.1843
     25  C        -15.5310   16.7020  137.4020 C.2    22  CYS22       0.2626
     26  O        -16.1910   15.7620  136.9900 O.2    22  CYS22      -0.2714
     27  CB       -16.8280   18.7380  136.6580 C.3    22  CYS22       0.0997
     28  SG       -17.5400   19.0280  138.3280 S.3    22  CYS22      -0.0797
     29  N        -14.8290   16.6520  138.5320 N.am   23  GLY23      -0.1954
     30  CA       -14.8270   15.4440  139.3390 C.3    23  GLY23       0.1869
     31  C        -16.0770   15.3530  140.2000 C.2    23  GLY23       0.2309
     32  O        -15.9830   15.2460  141.4230 O.2    23  GLY23      -0.2863
     33  N        -19.2430   11.5380  142.0890 N.3    25  TRP25      -0.1241
     34  CA       -19.8620   11.1930  143.3700 C.3    25  TRP25       0.1605
     35  C        -21.2980   11.7330  143.4420 C.2    25  TRP25       0.2264
     36  O        -22.1830   11.1020  144.0150 O.2    25  TRP25      -0.2867
     37  CB       -19.0300   11.7630  144.5310 C.3    25  TRP25       0.0550
     38  CG       -18.7830   13.2260  144.3910 C.ar   25  TRP25       0.0003
     39  CD1      -17.7360   13.8260  143.7550 C.ar   25  TRP25       0.0946
     40  CD2      -19.6230   14.2860  144.8760 C.ar   25  TRP25       0.0152
     41  NE1      -17.8700   15.1960  143.8200 N.ar   25  TRP25      -0.2442
     42  CE2      -19.0170   15.5050  144.5020 C.ar   25  TRP25       0.0810
     43  CE3      -20.8280   14.3190  145.5930 C.ar   25  TRP25       0.0012
     44  CZ2      -19.5770   16.7590  144.8220 C.ar   25  TRP25       0.0191
     45  CZ3      -21.3850   15.5610  145.9130 C.ar   25  TRP25       0.0001
     46  CH2      -20.7600   16.7640  145.5270 C.ar   25  TRP25       0.0015
     47  N        -18.5440   17.9050  153.6770 N.3    60  GLY60      -0.1225
     48  CA       -17.2530   17.3480  153.3000 C.3    60  GLY60       0.1811
     49  C        -16.8920   17.2160  151.8310 C.2    60  GLY60       0.2280
     50  O        -15.7710   16.8280  151.5120 O.2    60  GLY60      -0.2866
     51  N        -15.9190   18.3810  147.9170 N.3    62  GLU62      -0.1245
     52  CA       -15.1100   19.4460  147.3210 C.3    62  GLU62       0.1567
     53  C        -15.4890   19.7670  145.8600 C.2    62  GLU62       0.2260
     54  O        -14.6060   19.9980  145.0200 O.2    62  GLU62      -0.2867
     55  CB       -13.6140   19.0890  147.3900 C.3    62  GLU62       0.0388
     56  CG       -13.0740   18.8520  148.8140 C.3    62  GLU62       0.1160
     57  CD       -11.5830   18.4810  148.8460 C.2    62  GLU62       0.3649
     58  OE1      -11.0090   18.1930  147.7660 O.co2  62  GLU62      -0.2457
     59  OE2      -10.9940   18.4700  149.9580 O.co2  62  GLU62      -0.2457
     60  N        -15.9880   19.9690  142.1870 N.3    64  CYS64      -0.1221
     61  CA       -15.3100   19.3130  141.0730 C.3    64  CYS64       0.1808
     62  C        -14.0070   18.6200  141.4700 C.2    64  CYS64       0.2601
     63  O        -13.4140   17.9040  140.6660 O.2    64  CYS64      -0.2717
     64  CB       -15.0040   20.3240  139.9710 C.3    64  CYS64       0.0970
     65  SG       -16.4970   20.9300  139.0960 S.3    64  CYS64      -0.0800
     66  N        -13.5460   18.8600  142.6920 N.am   65  ASN65      -0.1960
     67  CA       -12.3300   18.2210  143.1660 C.3    65  ASN65       0.1819
     68  C        -12.6270   16.9300  143.9160 C.2    65  ASN65       0.2622
     69  O        -11.7460   16.3470  144.5370 O.2    65  ASN65      -0.2715
     70  CB       -11.5180   19.1810  144.0430 C.3    65  ASN65       0.1195
     71  CG       -10.8280   20.2640  143.2300 C.2    65  ASN65       0.2630
     72  OD1      -10.0910   19.9690  142.2790 O.2    65  ASN65      -0.2716
     73  ND2      -11.0580   21.5250  143.5970 N.am   65  ASN65      -0.0877
     74  N        -13.8770   16.4810  143.8660 N.am   66  GLY66      -0.1940
     75  CA       -14.2080   15.2290  144.5220 C.3    66  GLY66       0.2014
     76  C        -15.2100   15.2690  145.6640 C.2    66  GLY66       0.2639
     77  O        -15.6060   16.3360  146.1310 O.2    66  GLY66      -0.2714
     78  N        -15.6120   14.0820  146.1080 N.am   67  GLY67      -0.1939
     79  CA       -16.5720   13.9710  147.1870 C.3    67  GLY67       0.2014
     80  C        -16.9580   12.5200  147.3810 C.2    67  GLY67       0.2639
     81  O        -16.3930   11.6290  146.7350 O.2    67  GLY67      -0.2714
     82  N        -17.9000   12.2800  148.2890 N.am   68  LEU68      -0.1963
     83  CA       -18.3860   10.9380  148.5690 C.3    68  LEU68       0.1728
     84  C        -19.8990   10.8910  148.4640 C.2    68  LEU68       0.2616
     85  O        -20.5820   11.8640  148.8340 O.2    68  LEU68      -0.2715
     86  CB       -18.0080   10.4780  149.9840 C.3    68  LEU68       0.0311
     87  CG       -16.5370   10.3560  150.4240 C.3    68  LEU68       0.0022
     88  CD1      -16.4970    9.8050  151.8500 C.3    68  LEU68       0.0001
     89  CD2      -15.7650    9.4350  149.4990 C.3    68  LEU68       0.0001
     90  N        -20.4250    9.7770  147.9700 N.am   69  MET69      -0.1977
     91  CA       -21.8680    9.6540  147.8740 C.3    69  MET69       0.1605
     92  C        -22.5210    9.7750  149.2630 C.2    69  MET69       0.2287
     93  O        -23.5720   10.3780  149.3840 O.2    69  MET69      -0.2864
     94  CB       -22.2630    8.3140  147.2510 C.3    69  MET69       0.0413
     95  CG       -21.9580    8.1890  145.7480 C.3    69  MET69       0.0598
     96  SD       -20.2170    7.9390  145.3370 S.3    69  MET69      -0.1393
     97  CE       -20.0670    6.1340  145.5660 C.3    69  MET69       0.0692
     98  N        -21.5840   11.5650  151.7590 N.3    71  TYR71      -0.1241
     99  CA       -21.6040   12.9810  152.1410 C.3    71  TYR71       0.1605
    100  C        -22.7630   13.6740  151.4240 C.2    71  TYR71       0.2264
    101  O        -23.3940   14.5690  151.9630 O.2    71  TYR71      -0.2867
    102  CB       -20.2800   13.6830  151.7780 C.3    71  TYR71       0.0534
    103  CG       -19.0710   13.2690  152.6140 C.ar   71  TYR71      -0.0201
    104  CD1      -19.2150   12.4940  153.7730 C.ar   71  TYR71      -0.0009
    105  CD2      -17.7820   13.6750  152.2520 C.ar   71  TYR71      -0.0009
    106  CE1      -18.1000   12.1340  154.5460 C.ar   71  TYR71       0.0417
    107  CE2      -16.6740   13.3280  153.0190 C.ar   71  TYR71       0.0417
    108  CZ       -16.8380   12.5570  154.1590 C.ar   71  TYR71       0.1957
    109  OH       -15.7280   12.1960  154.8960 O.3    71  TYR71      -0.2866
    110  N        -18.1190    2.6480  144.4100 N.3   134  ALA134     -0.1245
    111  CA       -16.8790    3.2690  143.9710 C.3   134  ALA134      0.1562
    112  C        -15.9880    2.2100  143.3480 C.2   134  ALA134      0.2260
    113  O        -15.9660    1.0620  143.8030 O.2   134  ALA134     -0.2867
    114  CB       -16.1390    3.9140  145.1550 C.3   134  ALA134      0.0290
    115  N        -11.0140    3.2030  138.5190 N.3   137  ALA137     -0.1231
    116  CA       -11.1570    3.4660  137.0940 C.3   137  ALA137      0.1694
    117  C         -9.9300    4.1840  136.5430 C.2   137  ALA137      0.2592
    118  O         -9.9570    4.7090  135.4300 O.2   137  ALA137     -0.2718
    119  CB       -12.3930    4.3160  136.8600 C.3   137  ALA137      0.0304
    120  N         -8.8560    4.1830  137.3270 N.am  138  GLY138     -0.1957
    121  CA        -7.6400    4.8730  136.9270 C.3   138  GLY138      0.1869
    122  C         -6.7290    4.1700  135.9430 C.2   138  GLY138      0.2309
    123  O         -5.5050    4.1760  136.1220 O.2   138  GLY138     -0.2863
    124  N         -8.3200    0.7960  146.7090 N.3   159  ASP159     -0.1225
    125  CA        -8.0910    2.1840  146.3160 C.3   159  ASP159      0.1805
    126  C         -8.9630    2.5820  145.1060 C.2   159  ASP159      0.2598
    127  O         -8.5760    2.3750  143.9500 O.2   159  ASP159     -0.2718
    128  CB        -6.6210    2.3800  145.9550 C.3   159  ASP159      0.1424
    129  CG        -6.2430    3.8380  145.8250 C.2   159  ASP159      0.3668
    130  OD1       -7.1490    4.6920  145.9160 O.co2 159  ASP159     -0.2456
    131  OD2       -5.0400    4.1400  145.6340 O.co2 159  ASP159     -0.2456
    132  N        -10.1220    3.1600  145.3930 N.am  160  MET160     -0.1965
    133  CA       -11.0580    3.5570  144.3620 C.3   160  MET160      0.1736
    134  C        -11.0730    5.0600  144.1200 C.2   160  MET160      0.2616
    135  O        -10.8400    5.8570  145.0290 O.2   160  MET160     -0.2715
    136  CB       -12.4670    3.0590  144.7180 C.3   160  MET160      0.0427
    137  CG       -12.5910    1.5420  144.8220 C.3   160  MET160      0.0599
    138  SD       -12.1850    0.8800  146.4780 S.3   160  MET160     -0.1393
    139  CE       -13.5690    1.5680  147.4050 C.3   160  MET160      0.0692
    140  N        -11.3770    5.4520  142.8920 N.am  161  ASP161     -0.1957
    141  CA       -11.3710    6.8630  142.5620 C.3   161  ASP161      0.1840
    142  C        -12.5580    7.3420  141.7210 C.2   161  ASP161      0.2622
    143  O        -12.6410    8.5380  141.3930 O.2   161  ASP161     -0.2715
    144  CB       -10.0550    7.1990  141.8360 C.3   161  ASP161      0.1450
    145  CG        -9.9530    6.5600  140.4540 C.2   161  ASP161      0.3671
    146  OD1      -10.8110    5.7140  140.0900 O.co2 161  ASP161     -0.2456
    147  OD2       -8.9940    6.9090  139.7220 O.co2 161  ASP161     -0.2456
    148  N        -13.4830    6.4460  141.3880 N.am  162  HIS162     -0.1959
    149  CA       -14.6150    6.8280  140.5380 C.3   162  HIS162      0.1787
    150  C        -15.9790    6.3420  141.0700 C.2   162  HIS162      0.2620
    151  O        -16.1810    5.1580  141.2880 O.2   162  HIS162     -0.2715
    152  CB       -14.3480    6.2980  139.1220 C.3   162  HIS162      0.0785
    153  CG       -15.3520    6.7310  138.1010 C.ar  162  HIS162      0.0821
    154  ND1      -15.8960    7.9990  138.0800 N.ar  162  HIS162     -0.2267
    155  CD2      -15.8690    6.0810  137.0290 C.ar  162  HIS162      0.1154
    156  CE1      -16.7020    8.1090  137.0380 C.ar  162  HIS162      0.1986
    157  NE2      -16.7030    6.9620  136.3860 N.ar  162  HIS162     -0.2212
    158  N        -16.8940    7.2870  141.2800 N.am  163  GLY163     -0.1954
    159  CA       -18.2100    6.9570  141.7910 C.3   163  GLY163      0.1869
    160  C        -19.1740    6.6480  140.6620 C.2   163  GLY163      0.2309
    161  O        -19.3310    7.4430  139.7380 O.2   163  GLY163     -0.2863
@<TRIPOS>BOND
     1    21    20    2
     2    20    22   am
     3    20    19    1
     4    11    10    1
     5    11    12    1
     6    18    19    1
     7    18    15    1
     8    14    12   am
     9    14    15    1
    10    10     3   am
    11    12    13    2
    12    15    16    1
    13     1     2    1
    14     3     4    2
    15     3     2    1
    16     2     5    1
    17    16    17    2
    18    16    23   am
    19     6     5    1
    20     6     7    1
    21    23    24    1
    22   118   117    2
    23   122   123    2
    24   122   121    1
    25     7     8    2
    26     7     9   am
    27   157   155   ar
    28   157   156   ar
    29   117   116    1
    30   117   120   am
    31    24    27    1
    32    24    25    1
    33    27    28    1
    34   119   116    1
    35   121   120    1
    36    26    25    2
    37   155   153   ar
    38   156   154   ar
    39   116   115    1
    40    25    29   am
    41   154   153   ar
    42   153   152    1
    43    28    65    1
    44    29    30    1
    45    65    64    1
    46   152   149    1
    47    30    31    1
    48   147   145   ar
    49   161   160    2
    50    64    61    1
    51   146   145   ar
    52    31    32    2
    53   145   144    1
    54   149   150    1
    55   149   148    1
    56   160   159    1
    57    63    62    2
    58   150   158   am
    59   150   151    2
    60    61    62    1
    61    61    60    1
    62   158   159    1
    63   148   142   am
    64   143   142    2
    65    62    66   am
    66   142   141    1
    67   144   141    1
    68    33    34    1
    69    72    71    2
    70   141   140    1
    71    66    67    1
    72   140   134   am
    73    67    68    1
    74    67    70    1
    75    71    73   am
    76    71    70    1
    77   112   113    2
    78   112   111    1
    79    34    35    1
    80    34    37    1
    81    35    36    2
    82    39    41   ar
    83    39    38   ar
    84    41    42   ar
    85    74    68   am
    86    74    75    1
    87    68    69    2
    88   127   126    2
    89   111   110    1
    90   111   114    1
    91   134   133    1
    92   134   135    2
    93   133   136    1
    94   133   132    1
    95    38    37    1
    96    38    40   ar
    97    42    44   ar
    98    42    40   ar
    99    75    76    1
   100   136   137    1
   101    44    46   ar
   102   137   138    1
   103    40    43   ar
   104    54    53    2
   105   126   132   am
   106   126   125    1
   107    96    97    1
   108    96    95    1
   109    46    45   ar
   110    43    45   ar
   111   131   129   ar
   112    76    78   am
   113    76    77    2
   114    95    94    1
   115   129   130   ar
   116   129   128    1
   117    53    52    1
   118   128   125    1
   119    78    79    1
   120   125   124    1
   121   138   139    1
   122    81    80    2
   123    79    80    1
   124    94    91    1
   125    52    55    1
   126    52    51    1
   127    80    82   am
   128    55    56    1
   129    58    57   ar
   130    91    90    1
   131    91    92    1
   132    90    84   am
   133    82    83    1
   134    84    83    1
   135    84    85    2
   136    83    86    1
   137    56    57    1
   138    57    59   ar
   139    92    93    2
   140    89    87    1
   141    86    87    1
   142    87    88    1
   143   100   101    2
   144   100    99    1
   145    50    49    2
   146    98    99    1
   147   102    99    1
   148   102   103    1
   149    49    48    1
   150   105   103   ar
   151   105   107   ar
   152   103   104   ar
   153   107   108   ar
   154    48    47    1
   155   104   106   ar
   156   108   106   ar
   157   108   109    1
