@<TRIPOS>MOLECULE
tmp/1midA02.pdb
 141 132 0 0 0
SMALL
GASTEIGER

@<TRIPOS>ATOM
      1  N          9.1850   -4.5290   14.6510 N.3    10  MET10      -0.1245
      2  CA         8.1830   -3.7730   13.8920 C.3    10  MET10       0.1570
      3  C          6.7340   -4.2240   13.9870 C.2    10  MET10       0.2261
      4  O          5.8350   -3.4810   13.5880 O.2    10  MET10      -0.2867
      5  CB         8.5460   -3.7720   12.4080 C.3    10  MET10       0.0387
      6  CG         9.8820   -3.1530   12.0780 C.3    10  MET10       0.0595
      7  SD         9.9880   -1.4520   12.6010 S.3    10  MET10      -0.1393
      8  CE         8.8210   -0.6730   11.4750 C.3    10  MET10       0.0692
      9  N          0.3580    0.6500   10.0700 N.3    17  VAL17      -0.1245
     10  CA         0.6320    0.6580    8.6400 C.3    17  VAL17       0.1561
     11  C         -0.5180    0.0380    7.8580 C.2    17  VAL17       0.2260
     12  O         -0.5790    0.1500    6.6350 O.2    17  VAL17      -0.2867
     13  CB         1.9400   -0.0780    8.2950 C.3    17  VAL17       0.0252
     14  CG1        3.1010    0.5950    9.0080 C.3    17  VAL17       0.0019
     15  CG2        1.8440   -1.5370    8.6780 C.3    17  VAL17       0.0019
     16  N         10.7560    0.5720   16.8220 N.3    31  VAL31      -0.1245
     17  CA        11.4490    1.2900   15.7620 C.3    31  VAL31       0.1561
     18  C         12.7580    1.8580   16.2830 C.2    31  VAL31       0.2260
     19  O         13.7970    1.7280   15.6360 O.2    31  VAL31      -0.2867
     20  CB        10.5860    2.4450   15.2170 C.3    31  VAL31       0.0252
     21  CG1       11.4130    3.3250   14.2940 C.3    31  VAL31       0.0019
     22  CG2        9.3810    1.8840   14.4800 C.3    31  VAL31       0.0019
     23  N         15.1810   -0.9800   16.9250 N.3    34  LEU34      -0.1231
     24  CA        15.6910   -1.5390   15.6850 C.3    34  LEU34       0.1693
     25  C         16.7220   -0.5920   15.0880 C.2    34  LEU34       0.2592
     26  O         17.7600   -1.0150   14.5800 O.2    34  LEU34      -0.2718
     27  CB        14.5540   -1.7510   14.6930 C.3    34  LEU34       0.0284
     28  CG        14.9300   -2.4720   13.4040 C.3    34  LEU34       0.0019
     29  CD1       15.4700   -3.8690   13.7040 C.3    34  LEU34       0.0001
     30  CD2       13.6860   -2.5520   12.5330 C.3    34  LEU34       0.0001
     31  N         16.4260    0.6980   15.1570 N.am   35  HIS35      -0.1976
     32  CA        17.3130    1.7180   14.6220 C.3    35  HIS35       0.1656
     33  C         18.6650    1.6530   15.3340 C.2    35  HIS35       0.2291
     34  O         19.7220    1.7590   14.7110 O.2    35  HIS35      -0.2864
     35  CB        16.6680    3.0870   14.8190 C.3    35  HIS35       0.0771
     36  CG        17.2940    4.1750   14.0060 C.ar   35  HIS35       0.0820
     37  ND1       18.4880    4.7670   14.3470 N.ar   35  HIS35      -0.2267
     38  CD2       16.8920    4.7700   12.8580 C.ar   35  HIS35       0.1154
     39  CE1       18.7980    5.6820   13.4450 C.ar   35  HIS35       0.1986
     40  NE2       17.8450    5.7020   12.5290 N.ar   35  HIS35      -0.2212
     41  N         20.6940   -1.3470   14.1610 N.3    38  ALA38      -0.1245
     42  CA        21.1710   -1.2380   12.7870 C.3    38  ALA38       0.1562
     43  C         22.3410   -0.2570   12.7730 C.2    38  ALA38       0.2260
     44  O         22.2370    0.8380   12.2280 O.2    38  ALA38      -0.2867
     45  CB        20.0370   -0.7430   11.8850 C.3    38  ALA38       0.0290
     46  N         21.7830   -2.0630    8.4210 N.3    44  ARG44      -0.1245
     47  CA        20.7780   -1.1920    7.8260 C.3    44  ARG44       0.1563
     48  C         20.2380   -1.8160    6.5440 C.2    44  ARG44       0.2260
     49  O         19.0390   -1.7620    6.2840 O.2    44  ARG44      -0.2867
     50  CB        21.3600    0.2010    7.5620 C.3    44  ARG44       0.0307
     51  CG        21.5590    0.9910    8.8550 C.3    44  ARG44       0.0489
     52  CD        21.9630    2.4360    8.6130 C.3    44  ARG44       0.2205
     53  NE        23.3700    2.5790    8.2770 N.pl3  44  ARG44      -0.0865
     54  CZ        24.3570    2.6120    9.1660 C.cat  44  ARG44       0.5346
     55  NH1       24.0980    2.5160   10.4620 N.pl3  44  ARG44       0.1354
     56  NH2       25.6080    2.7460    8.7550 N.pl3  44  ARG44       0.1354
     57  N         17.8330   -4.5700    7.5210 N.3    47  VAL47      -0.1245
     58  CA        16.5380   -4.0250    7.9110 C.3    47  VAL47       0.1561
     59  C         15.7390   -3.7040    6.6570 C.2    47  VAL47       0.2260
     60  O         14.5480   -4.0030    6.5740 O.2    47  VAL47      -0.2867
     61  CB        16.6840   -2.7300    8.7310 C.3    47  VAL47       0.0252
     62  CG1       15.3220   -2.0870    8.9260 C.3    47  VAL47       0.0019
     63  CG2       17.3210   -3.0440   10.0790 C.3    47  VAL47       0.0019
     64  N         12.2460   -5.5170    5.5680 N.3    51  LEU51      -0.1245
     65  CA        11.0130   -4.7400    5.4900 C.3    51  LEU51       0.1561
     66  C         10.5010   -4.6540    4.0570 C.2    51  LEU51       0.2260
     67  O          9.3000   -4.5170    3.8160 O.2    51  LEU51      -0.2867
     68  CB        11.2350   -3.3300    6.0350 C.3    51  LEU51       0.0270
     69  CG        11.4730   -3.2170    7.5410 C.3    51  LEU51       0.0019
     70  CD1       11.6610   -1.7550    7.9240 C.3    51  LEU51       0.0001
     71  CD2       10.2980   -3.8230    8.2840 C.3    51  LEU51       0.0001
     72  N          3.3590    4.2840    6.9090 N.3    66  ALA66      -0.1245
     73  CA         4.6910    3.6810    6.9920 C.3    66  ALA66       0.1562
     74  C          5.7790    4.7450    6.8830 C.2    66  ALA66       0.2260
     75  O          6.7540    4.7320    7.6310 O.2    66  ALA66      -0.2867
     76  CB         4.8720    2.6490    5.8840 C.3    66  ALA66       0.0290
     77  N          6.4190    6.9000   10.0150 N.3    69  ILE69      -0.1231
     78  CA         6.9850    6.2650   11.1960 C.3    69  ILE69       0.1678
     79  C          8.3060    6.8630   11.6770 C.2    69  ILE69       0.2434
     80  O          8.4500    7.1530   12.8580 O.2    69  ILE69      -0.2733
     81  CB         7.1110    4.7430   10.9980 C.3    69  ILE69       0.0265
     82  CG1        5.7080    4.1170   11.0730 C.3    69  ILE69       0.0019
     83  CG2        8.0100    4.1340   12.0640 C.3    69  ILE69       0.0020
     84  CD1        5.6680    2.6310   10.7980 C.3    69  ILE69       0.0001
     85  N          9.2770    7.0850   10.7770 N.am   70  PRO70      -0.2729
     86  CA        10.5420    7.6580   11.2500 C.3    70  PRO70       0.1401
     87  C         10.3650    8.9860   11.9950 C.2    70  PRO70       0.2269
     88  O         10.8320    9.1390   13.1240 O.2    70  PRO70      -0.2865
     89  CB        11.3530    7.8150    9.9620 C.3    70  PRO70       0.0296
     90  CG        10.8600    6.6760    9.1240 C.3    70  PRO70       0.0237
     91  CD         9.3570    6.7570    9.3440 C.3    70  PRO70       0.0939
     92  N         15.9830    8.9180   12.6310 N.3    76  ASN76      -0.1225
     93  CA        16.4070    9.4060   11.3380 C.3    76  ASN76       0.1785
     94  C         16.5300    8.3080   10.2960 C.2    76  ASN76       0.2597
     95  O         17.3700    7.4150   10.4070 O.2    76  ASN76      -0.2718
     96  CB        17.7430   10.1390   11.4690 C.3    76  ASN76       0.1169
     97  CG        18.1390   10.8480   10.1970 C.2    76  ASN76       0.2627
     98  OD1       17.3480   11.5970    9.6260 O.2    76  ASN76      -0.2716
     99  ND2       19.3660   10.6230    9.7450 N.am   76  ASN76      -0.0877
    100  N         15.6740    8.3780    9.2870 N.am   77  VAL77      -0.1966
    101  CA        15.6940    7.4220    8.1890 C.3    77  VAL77       0.1712
    102  C         15.6230    8.3180    6.9550 C.2    77  VAL77       0.2458
    103  O         14.5350    8.6370    6.4630 O.2    77  VAL77      -0.2730
    104  CB        14.4810    6.4660    8.2600 C.3    77  VAL77       0.0289
    105  CG1       14.5500    5.4610    7.1200 C.3    77  VAL77       0.0023
    106  CG2       14.4800    5.7370    9.6050 C.3    77  VAL77       0.0023
    107  N         16.7930    8.7570    6.4590 N.am   78  PRO78      -0.2716
    108  CA        16.9450    9.6340    5.2990 C.3    78  PRO78       0.1536
    109  C         16.7050    8.9770    3.9600 C.2    78  PRO78       0.2598
    110  O         17.2890    9.3800    2.9540 O.2    78  PRO78      -0.2715
    111  CB        18.3710   10.1340    5.4460 C.3    78  PRO78       0.0310
    112  CG        19.0690    8.9240    5.9690 C.3    78  PRO78       0.0237
    113  CD        18.1100    8.4310    7.0380 C.3    78  PRO78       0.0939
    114  N         15.8490    7.9650    3.9460 N.am   79  TYR79      -0.1974
    115  CA        15.5310    7.2680    2.7110 C.3    79  TYR79       0.1639
    116  C         14.0220    7.2190    2.5370 C.2    79  TYR79       0.2290
    117  O         13.2710    7.1430    3.5110 O.2    79  TYR79      -0.2864
    118  CB        16.1000    5.8440    2.7310 C.3    79  TYR79       0.0560
    119  CG        17.5990    5.7820    2.8960 C.ar   79  TYR79      -0.0198
    120  CD1       18.1750    5.6210    4.1550 C.ar   79  TYR79      -0.0009
    121  CD2       18.4450    5.9080    1.7950 C.ar   79  TYR79      -0.0009
    122  CE1       19.5590    5.5860    4.3120 C.ar   79  TYR79       0.0417
    123  CE2       19.8290    5.8740    1.9420 C.ar   79  TYR79       0.0417
    124  CZ        20.3790    5.7130    3.2030 C.ar   79  TYR79       0.1957
    125  OH        21.7480    5.6750    3.3580 O.3    79  TYR79      -0.2866
    126  N         10.6050    5.7420    2.1290 N.3    81  ILE81      -0.1245
    127  CA         9.9980    4.4610    2.4640 C.3    81  ILE81       0.1561
    128  C          9.0910    4.1210    1.2880 C.2    81  ILE81       0.2260
    129  O          7.8880    4.3760    1.3250 O.2    81  ILE81      -0.2867
    130  CB         9.1370    4.5600    3.7500 C.3    81  ILE81       0.0252
    131  CG1        9.9890    5.0780    4.9090 C.3    81  ILE81       0.0019
    132  CG2        8.5400    3.2010    4.0970 C.3    81  ILE81       0.0019
    133  CD1       11.1640    4.1960    5.2520 C.3    81  ILE81       0.0001
    134  N         21.6340    1.2840    0.4640 N.3    90  ILE90      -0.1245
    135  CA        21.5140    1.7860    1.8200 C.3    90  ILE90       0.1561
    136  C         22.8520    1.5310    2.4890 C.2    90  ILE90       0.2260
    137  O         23.4310    0.4550    2.3320 O.2    90  ILE90      -0.2867
    138  CB        20.4580    1.0190    2.6380 C.3    90  ILE90       0.0252
    139  CG1       19.1010    1.0540    1.9360 C.3    90  ILE90       0.0019
    140  CG2       20.3930    1.5950    4.0460 C.3    90  ILE90       0.0019
    141  CD1       18.6260    2.4330    1.5730 C.3    90  ILE90       0.0001
@<TRIPOS>BOND
     1   134   135    1
     2   128   129    2
     3   128   127    1
     4   141   139    1
     5   121   123   ar
     6   121   119   ar
     7   135   136    1
     8   135   138    1
     9   139   138    1
    10   123   124   ar
    11   126   127    1
    12   137   136    2
    13   127   130    1
    14   116   115    1
    15   116   117    2
    16   138   140    1
    17   115   118    1
    18   115   114    1
    19   118   119    1
    20   119   120   ar
    21   110   109    2
    22   124   125    1
    23   124   122   ar
    24   130   132    1
    25   130   131    1
    26    67    66    2
    27   114   109   am
    28   109   108    1
    29    66    65    1
    30   120   122   ar
    31   131   133    1
    32   108   111    1
    33   108   107    1
    34   111   112    1
    35    65    64    1
    36    65    68    1
    37    76    73    1
    38   112   113    1
    39    68    69    1
    40    49    48    2
    41   107   102   am
    42   107   113    1
    43   103   102    2
    44    48    47    1
    45    60    59    2
    46    12    11    2
    47    59    58    1
    48    74    73    1
    49    74    75    2
    50    72    73    1
    51   102   101    1
    52   105   104    1
    53    57    58    1
    54    69    70    1
    55    69    71    1
    56    50    47    1
    57    50    51    1
    58    47    46    1
    59    11    10    1
    60    58    61    1
    61   101   104    1
    62   101   100    1
    63   104   106    1
    64    53    52    1
    65    53    54    2
    66    13    10    1
    67    13    15    1
    68    13    14    1
    69    52    51    1
    70    10     9    1
    71    61    62    1
    72    61    63    1
    73    56    54    1
    74    90    91    1
    75    90    89    1
    76    54    55    1
    77   100    94   am
    78    91    85    1
    79    98    97    2
    80    99    97   am
    81    89    86    1
    82    77    78    1
    83    97    96    1
    84    94    95    2
    85    94    93    1
    86    85    86    1
    87    85    79   am
    88    84    82    1
    89    81    82    1
    90    81    78    1
    91    81    83    1
    92    78    79    1
    93    86    87    1
    94    93    96    1
    95    93    92    1
    96     8     7    1
    97    79    80    2
    98    45    42    1
    99    87    88    2
   100     6     5    1
   101     6     7    1
   102    44    43    2
   103     5     2    1
   104    40    38   ar
   105    40    39   ar
   106    30    28    1
   107    43    42    1
   108    42    41    1
   109    38    36   ar
   110    28    29    1
   111    28    27    1
   112    39    37   ar
   113     4     3    2
   114     2     3    1
   115     2     1    1
   116    36    37   ar
   117    36    35    1
   118    21    20    1
   119    22    20    1
   120    26    25    2
   121    32    35    1
   122    32    31    1
   123    32    33    1
   124    27    24    1
   125    34    33    2
   126    25    31   am
   127    25    24    1
   128    20    17    1
   129    19    18    2
   130    24    23    1
   131    17    18    1
   132    17    16    1
