@<TRIPOS>MOLECULE
tmp/1midA00.pdb
 118 109 0 0 0
SMALL
GASTEIGER

@<TRIPOS>ATOM
      1  N         21.7830   -2.0630    8.4210 N.3    44  ARG44      -0.1245
      2  CA        20.7780   -1.1920    7.8260 C.3    44  ARG44       0.1563
      3  C         20.2380   -1.8160    6.5440 C.2    44  ARG44       0.2260
      4  O         19.0390   -1.7620    6.2840 O.2    44  ARG44      -0.2867
      5  CB        21.3600    0.2010    7.5620 C.3    44  ARG44       0.0307
      6  CG        21.5590    0.9910    8.8550 C.3    44  ARG44       0.0489
      7  CD        21.9630    2.4360    8.6130 C.3    44  ARG44       0.2205
      8  NE        23.3700    2.5790    8.2770 N.pl3  44  ARG44      -0.0865
      9  CZ        24.3570    2.6120    9.1660 C.cat  44  ARG44       0.5346
     10  NH1       24.0980    2.5160   10.4620 N.pl3  44  ARG44       0.1354
     11  NH2       25.6080    2.7460    8.7550 N.pl3  44  ARG44       0.1354
     12  N         17.8330   -4.5700    7.5210 N.3    47  VAL47      -0.1231
     13  CA        16.5380   -4.0250    7.9110 C.3    47  VAL47       0.1692
     14  C         15.7390   -3.7040    6.6570 C.2    47  VAL47       0.2592
     15  O         14.5480   -4.0030    6.5740 O.2    47  VAL47      -0.2718
     16  CB        16.6840   -2.7300    8.7310 C.3    47  VAL47       0.0266
     17  CG1       15.3220   -2.0870    8.9260 C.3    47  VAL47       0.0020
     18  CG2       17.3210   -3.0440   10.0790 C.3    47  VAL47       0.0020
     19  N         16.4090   -3.0950    5.6830 N.am   48  CYS48      -0.1970
     20  CA        15.7700   -2.7210    4.4340 C.3    48  CYS48       0.1712
     21  C         15.2820   -3.9550    3.6770 C.2    48  CYS48       0.2296
     22  O         14.1250   -4.0060    3.2660 O.2    48  CYS48      -0.2864
     23  CB        16.7500   -1.9300    3.5800 C.3    48  CYS48       0.0983
     24  SG        16.0750   -1.3300    2.0080 S.3    48  CYS48      -0.0798
     25  N         12.2460   -5.5170    5.5680 N.3    51  LEU51      -0.1231
     26  CA        11.0130   -4.7400    5.4900 C.3    51  LEU51       0.1693
     27  C         10.5010   -4.6540    4.0570 C.2    51  LEU51       0.2591
     28  O          9.3000   -4.5170    3.8160 O.2    51  LEU51      -0.2718
     29  CB        11.2350   -3.3300    6.0350 C.3    51  LEU51       0.0284
     30  CG        11.4730   -3.2170    7.5410 C.3    51  LEU51       0.0019
     31  CD1       11.6610   -1.7550    7.9240 C.3    51  LEU51       0.0001
     32  CD2       10.2980   -3.8230    8.2840 C.3    51  LEU51       0.0001
     33  N         11.4190   -4.7210    3.1050 N.am   52  LYS52      -0.1980
     34  CA        11.0350   -4.6640    1.7080 C.3    52  LYS52       0.1596
     35  C         10.2060   -5.9220    1.4390 C.2    52  LYS52       0.2287
     36  O          9.1770   -5.8680    0.7650 O.2    52  LYS52      -0.2864
     37  CB        12.2870   -4.6220    0.8290 C.3    52  LYS52       0.0298
     38  CG        12.0260   -4.3680   -0.6420 C.3    52  LYS52       0.0038
     39  CD        13.3330   -4.3130   -1.4100 C.3    52  LYS52       0.0206
     40  CE        13.0970   -4.1230   -2.8930 C.3    52  LYS52       0.1093
     41  NZ        12.3810   -2.8550   -3.1730 N.3    52  LYS52      -0.1314
     42  N          6.7180   -5.7520    3.6470 N.3    55  ALA55      -0.1245
     43  CA         5.7640   -4.8390    3.0230 C.3    55  ALA55       0.1562
     44  C          4.8900   -5.4990    1.9610 C.2    55  ALA55       0.2260
     45  O          3.6690   -5.3440    1.9700 O.2    55  ALA55      -0.2867
     46  CB         6.5060   -3.6570    2.4200 C.3    55  ALA55       0.0290
     47  N         -1.4740   -2.1520    3.1070 N.3    61  LEU61      -0.1245
     48  CA        -0.3240   -1.3840    3.5610 C.3    61  LEU61       0.1561
     49  C         -0.5140    0.0880    3.2170 C.2    61  LEU61       0.2260
     50  O         -0.7070    0.4480    2.0590 O.2    61  LEU61      -0.2867
     51  CB         0.9550   -1.8980    2.9020 C.3    61  LEU61       0.0270
     52  CG         2.2440   -1.1460    3.2510 C.3    61  LEU61       0.0019
     53  CD1        2.5510   -1.2930    4.7330 C.3    61  LEU61       0.0001
     54  CD2        3.3860   -1.6990    2.4130 C.3    61  LEU61       0.0001
     55  N          1.3230    3.1890    2.8390 N.3    63  LEU63      -0.1245
     56  CA         2.6630    3.7530    2.7120 C.3    63  LEU63       0.1561
     57  C          2.8200    5.1140    3.3800 C.2    63  LEU63       0.2260
     58  O          3.9000    5.4430    3.8740 O.2    63  LEU63      -0.2867
     59  CB         3.0710    3.8590    1.2390 C.3    63  LEU63       0.0270
     60  CG         3.7980    2.6460    0.6490 C.3    63  LEU63       0.0019
     61  CD1        4.0750    2.8820   -0.8300 C.3    63  LEU63       0.0001
     62  CD2        5.1020    2.4100    1.4010 C.3    63  LEU63       0.0001
     63  N         15.6740    8.3780    9.2870 N.3    77  VAL77      -0.1245
     64  CA        15.6940    7.4220    8.1890 C.3    77  VAL77       0.1561
     65  C         15.6230    8.3180    6.9550 C.2    77  VAL77       0.2260
     66  O         14.5350    8.6370    6.4630 O.2    77  VAL77      -0.2867
     67  CB        14.4810    6.4660    8.2600 C.3    77  VAL77       0.0252
     68  CG1       14.5500    5.4610    7.1200 C.3    77  VAL77       0.0019
     69  CG2       14.4800    5.7370    9.6050 C.3    77  VAL77       0.0019
     70  N         15.8490    7.9650    3.9460 N.3    79  TYR79      -0.1241
     71  CA        15.5310    7.2680    2.7110 C.3    79  TYR79       0.1605
     72  C         14.0220    7.2190    2.5370 C.2    79  TYR79       0.2264
     73  O         13.2710    7.1430    3.5110 O.2    79  TYR79      -0.2867
     74  CB        16.1000    5.8440    2.7310 C.3    79  TYR79       0.0534
     75  CG        17.5990    5.7820    2.8960 C.ar   79  TYR79      -0.0201
     76  CD1       18.1750    5.6210    4.1550 C.ar   79  TYR79      -0.0009
     77  CD2       18.4450    5.9080    1.7950 C.ar   79  TYR79      -0.0009
     78  CE1       19.5590    5.5860    4.3120 C.ar   79  TYR79       0.0417
     79  CE2       19.8290    5.8740    1.9420 C.ar   79  TYR79       0.0417
     80  CZ        20.3790    5.7130    3.2030 C.ar   79  TYR79       0.1957
     81  OH        21.7480    5.6750    3.3580 O.3    79  TYR79      -0.2866
     82  N         10.6050    5.7420    2.1290 N.3    81  ILE81      -0.1231
     83  CA         9.9980    4.4610    2.4640 C.3    81  ILE81       0.1692
     84  C          9.0910    4.1210    1.2880 C.2    81  ILE81       0.2593
     85  O          7.8880    4.3760    1.3250 O.2    81  ILE81      -0.2718
     86  CB         9.1370    4.5600    3.7500 C.3    81  ILE81       0.0266
     87  CG1        9.9890    5.0780    4.9090 C.3    81  ILE81       0.0019
     88  CG2        8.5400    3.2010    4.0970 C.3    81  ILE81       0.0020
     89  CD1       11.1640    4.1960    5.2520 C.3    81  ILE81       0.0001
     90  N          9.6780    3.5660    0.2350 N.am   82  SER82      -0.1939
     91  CA         8.9230    3.2080   -0.9550 C.3    82  SER82       0.2040
     92  C          9.1390    1.7520   -1.3200 C.2    82  SER82       0.2485
     93  O         10.1820    1.1750   -1.0150 O.2    82  SER82      -0.2729
     94  CB         9.3480    4.0900   -2.1270 C.3    82  SER82       0.2129
     95  OG         8.8070    3.6050   -3.3410 O.3    82  SER82      -0.2179
     96  N          8.1470    1.1630   -1.9810 N.am   83  PRO83      -0.2726
     97  CA         8.2510   -0.2290   -2.3850 C.3    83  PRO83       0.1402
     98  C          9.4510   -0.5060   -3.2730 C.2    83  PRO83       0.2269
     99  O         10.0890   -1.5520   -3.1540 O.2    83  PRO83      -0.2865
    100  CB         6.9680   -0.5080   -3.1420 C.3    83  PRO83       0.0296
    101  CG         5.9010    0.3950   -2.5040 C.3    83  PRO83       0.0237
    102  CD         6.6940    1.6800   -2.2120 C.3    83  PRO83       0.0939
    103  N         12.2540    0.7830   -3.1170 N.3    85  ILE85      -0.1245
    104  CA        13.4970    1.1560   -2.4560 C.3    85  ILE85       0.1561
    105  C         14.6010    0.1610   -2.8110 C.2    85  ILE85       0.2260
    106  O         14.3830   -1.0530   -2.8170 O.2    85  ILE85      -0.2867
    107  CB        13.3350    1.2120   -0.9170 C.3    85  ILE85       0.0252
    108  CG1       14.6100    1.7860   -0.2870 C.3    85  ILE85       0.0019
    109  CG2       13.0430   -0.1760   -0.3660 C.3    85  ILE85       0.0019
    110  CD1       14.4550    2.1430    1.1750 C.3    85  ILE85       0.0001
    111  N         21.6340    1.2840    0.4640 N.3    90  ILE90      -0.1245
    112  CA        21.5140    1.7860    1.8200 C.3    90  ILE90       0.1561
    113  C         22.8520    1.5310    2.4890 C.2    90  ILE90       0.2260
    114  O         23.4310    0.4550    2.3320 O.2    90  ILE90      -0.2867
    115  CB        20.4580    1.0190    2.6380 C.3    90  ILE90       0.0252
    116  CG1       19.1010    1.0540    1.9360 C.3    90  ILE90       0.0019
    117  CG2       20.3930    1.5950    4.0460 C.3    90  ILE90       0.0019
    118  CD1       18.6260    2.4330    1.5730 C.3    90  ILE90       0.0001
@<TRIPOS>BOND
     1    95    94    1
     2    98    99    2
     3    98    97    1
     4    41    40    1
     5   100   101    1
     6   100    97    1
     7   103   104    1
     8    40    39    1
     9   106   105    2
    10   105   104    1
    11   101   102    1
    12   104   107    1
    13    97    96    1
    14   102    96    1
    15    94    91    1
    16    96    92   am
    17    39    38    1
    18    92    93    2
    19    92    91    1
    20    91    90    1
    21   107   109    1
    22   107   108    1
    23    61    60    1
    24    38    37    1
    25   108   110    1
    26    90    84   am
    27   111   112    1
    28    60    59    1
    29    60    62    1
    30    36    35    2
    31    37    34    1
    32    59    56    1
    33    84    85    2
    34    84    83    1
    35    35    34    1
    36   118   116    1
    37    34    33    1
    38    77    79   ar
    39    77    75   ar
    40   112   113    1
    41   112   115    1
    42   116   115    1
    43    79    80   ar
    44    44    45    2
    45    44    43    1
    46    24    23    1
    47    50    49    2
    48    82    83    1
    49   114   113    2
    50    54    52    1
    51    46    43    1
    52    83    86    1
    53    72    71    1
    54    72    73    2
    55   115   117    1
    56    71    74    1
    57    71    70    1
    58    56    55    1
    59    56    57    1
    60    74    75    1
    61    75    76   ar
    62    51    52    1
    63    51    48    1
    64    43    42    1
    65    33    27   am
    66    47    48    1
    67    80    81    1
    68    80    78   ar
    69    49    48    1
    70    52    53    1
    71    22    21    2
    72    57    58    2
    73    23    20    1
    74    21    20    1
    75    86    88    1
    76    86    87    1
    77    28    27    2
    78    27    26    1
    79    76    78   ar
    80    20    19    1
    81    87    89    1
    82    26    25    1
    83    26    29    1
    84    19    14   am
    85    29    30    1
    86     4     3    2
    87    66    65    2
    88     3     2    1
    89    15    14    2
    90    14    13    1
    91    65    64    1
    92    68    67    1
    93    12    13    1
    94    30    31    1
    95    30    32    1
    96     5     2    1
    97     5     6    1
    98     2     1    1
    99    13    16    1
   100    64    67    1
   101    64    63    1
   102    67    69    1
   103     8     7    1
   104     8     9    2
   105     7     6    1
   106    16    17    1
   107    16    18    1
   108    11     9    1
   109     9    10    1
