@<TRIPOS>MOLECULE
tmp/1midA01.pdb
 104 93 0 0 0
SMALL
GASTEIGER

@<TRIPOS>ATOM
      1  N         11.0260   -8.3500   12.2100 N.3     7  ASP7       -0.1239
      2  CA         9.5920   -8.5730   12.3380 C.3     7  ASP7        0.1674
      3  C          9.1200   -8.3380   13.7620 C.2     7  ASP7        0.2266
      4  O          8.0900   -7.7020   13.9830 O.2     7  ASP7       -0.2867
      5  CB         9.2140   -9.9980   11.9490 C.3     7  ASP7        0.1410
      6  CG         9.5190  -10.3100   10.5090 C.2     7  ASP7        0.3668
      7  OD1        9.4820   -9.3870    9.6770 O.co2   7  ASP7       -0.2456
      8  OD2        9.7830  -11.4910   10.2020 O.co2   7  ASP7       -0.2456
      9  N          9.1850   -4.5290   14.6510 N.3    10  MET10      -0.1230
     10  CA         8.1830   -3.7730   13.8920 C.3    10  MET10       0.1702
     11  C          6.7340   -4.2240   13.9870 C.2    10  MET10       0.2592
     12  O          5.8350   -3.4810   13.5880 O.2    10  MET10      -0.2718
     13  CB         8.5460   -3.7720   12.4080 C.3    10  MET10       0.0401
     14  CG         9.8820   -3.1530   12.0780 C.3    10  MET10       0.0596
     15  SD         9.9880   -1.4520   12.6010 S.3    10  MET10      -0.1393
     16  CE         8.8210   -0.6730   11.4750 C.3    10  MET10       0.0692
     17  N          6.4950   -5.4270   14.4950 N.am   11  LYS11      -0.1980
     18  CA         5.1320   -5.9360   14.5700 C.3    11  LYS11       0.1596
     19  C          4.1350   -4.9800   15.2380 C.2    11  LYS11       0.2287
     20  O          3.0060   -4.8260   14.7610 O.2    11  LYS11      -0.2864
     21  CB         5.1220   -7.3040   15.2570 C.3    11  LYS11       0.0298
     22  CG         3.7740   -8.0100   15.2140 C.3    11  LYS11       0.0038
     23  CD         3.9230   -9.4910   15.5470 C.3    11  LYS11       0.0206
     24  CE         2.5740  -10.1650   15.8310 C.3    11  LYS11       0.1093
     25  NZ         1.5470   -9.9380   14.7680 N.3    11  LYS11      -0.1314
     26  N          3.8340   -2.0720   14.9740 N.3    13  CYS13      -0.1221
     27  CA         3.5000   -1.0290   14.0090 C.3    13  CYS13       0.1808
     28  C          2.5510   -1.5280   12.9400 C.2    13  CYS13       0.2601
     29  O          2.0340   -0.7410   12.1490 O.2    13  CYS13      -0.2717
     30  CB         4.7530   -0.5270   13.2950 C.3    13  CYS13       0.0970
     31  SG         6.0760    0.0840   14.3650 S.3    13  CYS13      -0.0800
     32  N          2.3350   -2.8350   12.9090 N.am   14  LEU14      -0.1979
     33  CA         1.4860   -3.4400   11.8940 C.3    14  LEU14       0.1596
     34  C          0.1030   -2.8100   11.7480 C.2    14  LEU14       0.2287
     35  O         -0.2900   -2.4280   10.6470 O.2    14  LEU14      -0.2864
     36  CB         1.3530   -4.9390   12.1610 C.3    14  LEU14       0.0297
     37  CG         0.6580   -5.7590   11.0770 C.3    14  LEU14       0.0022
     38  CD1        1.3520   -5.5790    9.7380 C.3    14  LEU14       0.0001
     39  CD2        0.6660   -7.2150   11.4970 C.3    14  LEU14       0.0001
     40  N          0.3580    0.6500   10.0700 N.3    17  VAL17      -0.1245
     41  CA         0.6320    0.6580    8.6400 C.3    17  VAL17       0.1561
     42  C         -0.5180    0.0380    7.8580 C.2    17  VAL17       0.2260
     43  O         -0.5790    0.1500    6.6350 O.2    17  VAL17      -0.2867
     44  CB         1.9400   -0.0780    8.2950 C.3    17  VAL17       0.0252
     45  CG1        3.1010    0.5950    9.0080 C.3    17  VAL17       0.0019
     46  CG2        1.8440   -1.5370    8.6780 C.3    17  VAL17       0.0019
     47  N         12.2460   -5.5170    5.5680 N.3    51  LEU51      -0.1245
     48  CA        11.0130   -4.7400    5.4900 C.3    51  LEU51       0.1561
     49  C         10.5010   -4.6540    4.0570 C.2    51  LEU51       0.2260
     50  O          9.3000   -4.5170    3.8160 O.2    51  LEU51      -0.2867
     51  CB        11.2350   -3.3300    6.0350 C.3    51  LEU51       0.0270
     52  CG        11.4730   -3.2170    7.5410 C.3    51  LEU51       0.0019
     53  CD1       11.6610   -1.7550    7.9240 C.3    51  LEU51       0.0001
     54  CD2       10.2980   -3.8230    8.2840 C.3    51  LEU51       0.0001
     55  N          8.6730   -7.8340    3.8530 N.3    54  ILE54      -0.1231
     56  CA         7.4960   -7.7860    4.7190 C.3    54  ILE54       0.1692
     57  C          6.3810   -6.9670    4.0710 C.2    54  ILE54       0.2591
     58  O          5.2480   -7.4260    3.9610 O.2    54  ILE54      -0.2718
     59  CB         7.8390   -7.1450    6.0830 C.3    54  ILE54       0.0266
     60  CG1        8.8430   -8.0210    6.8310 C.3    54  ILE54       0.0019
     61  CG2        6.5820   -6.9720    6.9180 C.3    54  ILE54       0.0020
     62  CD1        9.6050   -7.2790    7.9210 C.3    54  ILE54       0.0001
     63  N          6.7180   -5.7520    3.6470 N.am   55  ALA55      -0.1980
     64  CA         5.7640   -4.8390    3.0230 C.3    55  ALA55       0.1597
     65  C          4.8900   -5.4990    1.9610 C.2    55  ALA55       0.2287
     66  O          3.6690   -5.3440    1.9700 O.2    55  ALA55      -0.2864
     67  CB         6.5060   -3.6570    2.4200 C.3    55  ALA55       0.0319
     68  N          1.8830   -7.3140    3.3900 N.3    58  ILE58      -0.1245
     69  CA         0.9780   -6.6380    4.3160 C.3    58  ILE58       0.1561
     70  C         -0.2650   -6.1300    3.6080 C.2    58  ILE58       0.2260
     71  O         -0.2020   -5.2310    2.7680 O.2    58  ILE58      -0.2867
     72  CB         1.6560   -5.4430    5.0030 C.3    58  ILE58       0.0252
     73  CG1        2.8800   -5.9230    5.7850 C.3    58  ILE58       0.0019
     74  CG2        0.6600   -4.7400    5.9250 C.3    58  ILE58       0.0019
     75  CD1        3.7220   -4.8010    6.3420 C.3    58  ILE58       0.0001
     76  N         -1.4740   -2.1520    3.1070 N.3    61  LEU61      -0.1245
     77  CA        -0.3240   -1.3840    3.5610 C.3    61  LEU61       0.1561
     78  C         -0.5140    0.0880    3.2170 C.2    61  LEU61       0.2260
     79  O         -0.7070    0.4480    2.0590 O.2    61  LEU61      -0.2867
     80  CB         0.9550   -1.8980    2.9020 C.3    61  LEU61       0.0270
     81  CG         2.2440   -1.1460    3.2510 C.3    61  LEU61       0.0019
     82  CD1        2.5510   -1.2930    4.7330 C.3    61  LEU61       0.0001
     83  CD2        3.3860   -1.6990    2.4130 C.3    61  LEU61       0.0001
     84  N          3.3590    4.2840    6.9090 N.3    66  ALA66      -0.1245
     85  CA         4.6910    3.6810    6.9920 C.3    66  ALA66       0.1562
     86  C          5.7790    4.7450    6.8830 C.2    66  ALA66       0.2260
     87  O          6.7540    4.7320    7.6310 O.2    66  ALA66      -0.2867
     88  CB         4.8720    2.6490    5.8840 C.3    66  ALA66       0.0290
     89  N          6.4190    6.9000   10.0150 N.3    69  ILE69      -0.1245
     90  CA         6.9850    6.2650   11.1960 C.3    69  ILE69       0.1561
     91  C          8.3060    6.8630   11.6770 C.2    69  ILE69       0.2260
     92  O          8.4500    7.1530   12.8580 O.2    69  ILE69      -0.2867
     93  CB         7.1110    4.7430   10.9980 C.3    69  ILE69       0.0252
     94  CG1        5.7080    4.1170   11.0730 C.3    69  ILE69       0.0019
     95  CG2        8.0100    4.1340   12.0640 C.3    69  ILE69       0.0019
     96  CD1        5.6680    2.6310   10.7980 C.3    69  ILE69       0.0001
     97  N         10.6050    5.7420    2.1290 N.3    81  ILE81      -0.1245
     98  CA         9.9980    4.4610    2.4640 C.3    81  ILE81       0.1561
     99  C          9.0910    4.1210    1.2880 C.2    81  ILE81       0.2260
    100  O          7.8880    4.3760    1.3250 O.2    81  ILE81      -0.2867
    101  CB         9.1370    4.5600    3.7500 C.3    81  ILE81       0.0252
    102  CG1        9.9890    5.0780    4.9090 C.3    81  ILE81       0.0019
    103  CG2        8.5400    3.2010    4.0970 C.3    81  ILE81       0.0019
    104  CD1       11.1640    4.1960    5.2520 C.3    81  ILE81       0.0001
@<TRIPOS>BOND
     1    99   100    2
     2    99    98    1
     3    65    66    2
     4    65    64    1
     5    79    78    2
     6    97    98    1
     7    83    81    1
     8    67    64    1
     9    98   101    1
    10    71    70    2
    11    80    81    1
    12    80    77    1
    13    64    63    1
    14    76    77    1
    15    78    77    1
    16    81    82    1
    17    68    69    1
    18    70    69    1
    19    63    57   am
    20   101   103    1
    21   101   102    1
    22    50    49    2
    23    55    56    1
    24    58    57    2
    25    49    48    1
    26    57    56    1
    27    69    72    1
    28    56    59    1
    29   102   104    1
    30    72    73    1
    31    72    74    1
    32    48    47    1
    33    48    51    1
    34    73    75    1
    35    88    85    1
    36    51    52    1
    37    59    60    1
    38    59    61    1
    39    43    42    2
    40    60    62    1
    41    86    85    1
    42    86    87    2
    43    84    85    1
    44    52    53    1
    45    52    54    1
    46    42    41    1
    47    44    41    1
    48    44    46    1
    49    44    45    1
    50    41    40    1
    51     7     6   ar
    52    38    37    1
    53    89    90    1
    54     8     6   ar
    55     6     5    1
    56    35    34    2
    57    96    94    1
    58    93    94    1
    59    93    90    1
    60    93    95    1
    61    37    39    1
    62    37    36    1
    63    90    91    1
    64    16    15    1
    65    91    92    2
    66    34    33    1
    67    33    36    1
    68    33    32    1
    69     5     2    1
    70    14    13    1
    71    14    15    1
    72    29    28    2
    73     1     2    1
    74     2     3    1
    75    13    10    1
    76    32    28   am
    77    28    27    1
    78    30    27    1
    79    30    31    1
    80    12    11    2
    81     3     4    2
    82    10    11    1
    83    10     9    1
    84    11    17   am
    85    27    26    1
    86    17    18    1
    87    18    19    1
    88    18    21    1
    89    20    19    2
    90    25    24    1
    91    22    21    1
    92    22    23    1
    93    23    24    1
