@<TRIPOS>MOLECULE
tmp/1mioC00.pdb
 111 101 0 0 0
SMALL
GASTEIGER

@<TRIPOS>ATOM
      1  N         -6.0000    7.5260    8.5100 N.3    49  ALA49      -0.1245
      2  CA        -5.9250    8.2090    9.7960 C.3    49  ALA49       0.1562
      3  C         -6.9950    9.2840   10.0870 C.2    49  ALA49       0.2260
      4  O         -7.2970    9.6240   11.2420 O.2    49  ALA49      -0.2867
      5  CB        -4.5480    8.8450    9.8910 C.3    49  ALA49       0.0290
      6  N        -10.5030   12.0180    9.6810 N.3    51  GLY51      -0.1225
      7  CA       -11.7860   12.2010   10.3480 C.3    51  GLY51       0.1811
      8  C        -12.9410   12.7690    9.4980 C.2    51  GLY51       0.2280
      9  O        -13.0130   12.6430    8.2740 O.2    51  GLY51      -0.2866
     10  N        -15.3140   16.9260   13.3650 N.3    55  ALA55      -0.1245
     11  CA       -14.0770   16.7940   14.0910 C.3    55  ALA55       0.1562
     12  C        -13.2160   18.0360   13.9000 C.2    55  ALA55       0.2260
     13  O        -12.4980   18.4050   14.8220 O.2    55  ALA55      -0.2867
     14  CB       -13.3110   15.5890   13.6040 C.3    55  ALA55       0.0290
     15  N        -11.7600   20.5600   16.9250 N.3    60  VAL60      -0.1245
     16  CA       -10.6280   21.4510   17.0610 C.3    60  VAL60       0.1561
     17  C        -10.7760   22.9880   16.9940 C.2    60  VAL60       0.2260
     18  O        -10.0200   23.6660   17.6780 O.2    60  VAL60      -0.2867
     19  CB        -9.4560   20.9940   16.0510 C.3    60  VAL60       0.0252
     20  CG1       -9.4560   19.5100   15.7700 C.3    60  VAL60       0.0019
     21  CG2       -9.5540   21.7660   14.8060 C.3    60  VAL60       0.0019
     22  N        -10.5430   13.8970   24.7990 N.3    85  GLY85      -0.1210
     23  CA        -9.6450   13.3190   23.7990 C.3    85  GLY85       0.1956
     24  C         -8.4680   14.2320   23.3500 C.2    85  GLY85       0.2611
     25  O         -7.2920   13.8360   23.4650 O.2    85  GLY85      -0.2717
     26  N         -8.7490   15.4320   22.7670 N.am   86  ARG86      -0.1979
     27  CA        -7.7230   16.4320   22.4120 C.3    86  ARG86       0.1597
     28  C         -7.5740   17.3740   23.5990 C.2    86  ARG86       0.2287
     29  O         -8.5020   18.0440   24.0610 O.2    86  ARG86      -0.2864
     30  CB        -8.0810   17.3130   21.2280 C.3    86  ARG86       0.0334
     31  CG        -6.8880   18.0600   20.6320 C.3    86  ARG86       0.0492
     32  CD        -7.4110   18.6890   19.3470 C.3    86  ARG86       0.2205
     33  NE        -8.3110   19.7910   19.6160 N.pl3  86  ARG86      -0.0865
     34  CZ        -7.9870   21.0420   19.3040 C.cat  86  ARG86       0.5346
     35  NH1       -6.8420   21.3520   18.7200 N.pl3  86  ARG86       0.1354
     36  NH2       -8.8210   22.0130   19.6250 N.pl3  86  ARG86       0.1354
     37  N        -11.4390   16.4290    8.2910 N.3   181  GLN181     -0.1245
     38  CA       -11.6080   17.5570    9.1740 C.3   181  GLN181      0.1566
     39  C        -11.0620   18.9040    8.6950 C.2   181  GLN181      0.2260
     40  O        -11.3610   19.9060    9.3410 O.2   181  GLN181     -0.2867
     41  CB       -11.0070   17.2180   10.5450 C.3   181  GLN181      0.0367
     42  CG        -9.5520   16.8690   10.7180 C.3   181  GLN181      0.0905
     43  CD        -9.2870   15.3880   10.7270 C.2   181  GLN181      0.2608
     44  OE1       -9.9220   14.6660    9.9960 O.2   181  GLN181     -0.2717
     45  NE2       -8.3750   14.8070   11.4720 N.am  181  GLN181     -0.0878
     46  N          1.6470   19.7380   11.7770 N.3   346  ARG346     -0.1245
     47  CA         2.7290   19.3970   12.7040 C.3   346  ARG346      0.1563
     48  C          3.8230   18.5360   12.1400 C.2   346  ARG346      0.2260
     49  O          4.8730   18.4090   12.7850 O.2   346  ARG346     -0.2867
     50  CB         2.2040   18.7140   13.9830 C.3   346  ARG346      0.0307
     51  CG         1.7150   19.7870   14.9170 C.3   346  ARG346      0.0489
     52  CD         1.3540   19.3590   16.3080 C.3   346  ARG346      0.2205
     53  NE         0.5970   20.4620   16.9160 N.pl3 346  ARG346     -0.0865
     54  CZ        -0.2760   20.2570   17.9180 C.cat 346  ARG346      0.5346
     55  NH1       -0.4390   19.0220   18.3930 N.pl3 346  ARG346      0.1354
     56  NH2       -1.0650   21.2420   18.3840 N.pl3 346  ARG346      0.1354
     57  N         -2.4890   13.9700    6.8320 N.3   367  GLU367     -0.1253
     58  CA        -3.6610   13.1400    6.6780 C.3   367  GLU367      0.1468
     59  C         -4.7750   14.0260    6.2720 C.3   367  GLU367      0.2054
     60  O         -5.7910   13.4200    6.0070 O.3   367  GLU367     -0.2184
     61  CB        -4.0860   12.3980    7.9890 C.2   367  GLU367      0.0019
     62  CG        -4.5500   13.2110    9.2420 C.2   367  GLU367      0.0831
     63  CD        -4.5070   12.4930   10.5940 C.2   367  GLU367      0.3877
     64  OE1       -3.4680   11.8990   10.9000 O.co2 367  GLU367     -0.2406
     65  OE2       -5.4880   12.5480   11.3510 O.co2 367  GLU367     -0.2406
     66  N          0.2670    9.1860   15.8300 N.3   463  GLY463     -0.1210
     67  CA        -0.8640    9.5230   16.6800 C.3   463  GLY463      0.1956
     68  C         -1.2810    8.3150   17.4850 C.2   463  GLY463      0.2612
     69  O         -0.3930    7.5260   17.7960 O.2   463  GLY463     -0.2717
     70  N         -2.5590    8.0730   17.7730 N.am  464  ILE464     -0.1965
     71  CA        -2.8660    6.9900   18.6850 C.3   464  ILE464      0.1727
     72  C         -3.2040    5.6540   18.0640 C.2   464  ILE464      0.2616
     73  O         -2.6550    4.6370   18.4830 O.2   464  ILE464     -0.2715
     74  CB        -4.0010    7.4940   19.7030 C.3   464  ILE464      0.0290
     75  CG1       -4.2290    6.4260   20.7840 C.3   464  ILE464      0.0022
     76  CG2       -5.2760    7.8560   18.9930 C.3   464  ILE464      0.0023
     77  CD1       -3.0170    6.1940   21.7140 C.3   464  ILE464      0.0001
     78  N         -4.0550    5.6280   17.0500 N.am  465  LYS465     -0.1977
     79  CA        -4.4270    4.4100   16.3290 C.3   465  LYS465      0.1596
     80  C         -3.2110    3.5490   15.9320 C.2   465  LYS465      0.2287
     81  O         -3.1240    2.3270   16.1620 O.2   465  LYS465     -0.2864
     82  CB        -5.2150    4.8370   15.0730 C.3   465  LYS465      0.0298
     83  CG        -6.5530    5.5380   15.2160 C.3   465  LYS465      0.0038
     84  CD        -6.9150    6.0990   13.8580 C.3   465  LYS465      0.0206
     85  CE        -6.4800    7.5310   13.6650 C.3   465  LYS465      0.1093
     86  NZ        -5.0660    7.7600   13.8900 N.3   465  LYS465     -0.1314
     87  N          3.6330   10.1680   19.7080 N.3   479  GLN479     -0.1245
     88  CA         2.5440   10.8780   19.0600 C.3   479  GLN479      0.1566
     89  C          2.6780   12.3670   19.2470 C.2   479  GLN479      0.2260
     90  O          2.7130   12.8270   20.3830 O.2   479  GLN479     -0.2867
     91  CB         1.1480   10.3490   19.5940 C.3   479  GLN479      0.0367
     92  CG         0.5410   10.6110   20.9740 C.3   479  GLN479      0.0905
     93  CD        -0.5240    9.6440   21.4990 C.2   479  GLN479      0.2608
     94  OE1       -1.7020    9.9690   21.4930 O.2   479  GLN479     -0.2717
     95  NE2       -0.2110    8.4750   22.0310 N.am  479  GLN479     -0.0878
     96  N          0.4310   14.5770   18.1540 N.3   481  HIS481     -0.1226
     97  CA        -0.8960   15.1580   18.3710 C.3   481  HIS481      0.1752
     98  C         -1.1920   15.5400   19.8380 C.2   481  HIS481      0.2596
     99  O         -1.4940   16.6720   20.1910 O.2   481  HIS481     -0.2718
    100  CB        -1.9980   14.1660   17.9150 C.3   481  HIS481      0.0759
    101  CG        -2.3410   13.9880   16.4270 C.ar  481  HIS481      0.0818
    102  ND1       -3.3750   14.4880   15.7170 N.ar  481  HIS481     -0.2268
    103  CD2       -1.6980   13.0850   15.5950 C.ar  481  HIS481      0.1154
    104  CE1       -3.3500   13.9210   14.5210 C.ar  481  HIS481      0.1986
    105  NE2       -2.3530   13.0810   14.4610 N.ar  481  HIS481     -0.2212
    106  N         -1.1310   14.5230   20.7040 N.am  482  SER482     -0.1952
    107  CA        -1.5140   14.5680   22.1120 C.3   482  SER482      0.1924
    108  C         -0.3080   14.5120   23.0160 C.2   482  SER482      0.2314
    109  O         -0.3730   14.0390   24.1450 O.2   482  SER482     -0.2863
    110  CB        -2.4060   13.3860   22.4350 C.3   482  SER482      0.2116
    111  OG        -3.4670   13.2180   21.5060 O.3   482  SER482     -0.2180
@<TRIPOS>BOND
     1    60    59    1
     2    59    58    1
     3    58    57    1
     4    58    61    1
     5    61    62    2
     6     9     8    2
     7    37    38    1
     8     1     2    1
     9    39    38    1
    10    39    40    2
    11    38    41    1
    12    62    63    1
    13     8     7    1
    14     6     7    1
    15     2     5    1
    16     2     3    1
    17    44    43    2
    18     3     4    2
    19    41    42    1
    20    63    64   ar
    21    63    65   ar
    22    42    43    1
    23    43    45   am
    24    46    47    1
    25    48    47    1
    26    48    49    2
    27    47    50    1
    28    10    11    1
    29    14    11    1
    30    85    84    1
    31    85    86    1
    32    84    83    1
    33    12    11    1
    34    12    13    2
    35    50    51    1
    36   105   104   ar
    37   105   103   ar
    38   104   102   ar
    39    21    19    1
    40    51    52    1
    41    82    83    1
    42    82    79    1
    43   103   101   ar
    44   102   101   ar
    45    20    19    1
    46    66    67    1
    47    80    81    2
    48    80    79    1
    49    19    16    1
    50    52    53    1
    51    79    78    1
    52   101   100    1
    53    67    68    1
    54    53    54    2
    55    15    16    1
    56    17    16    1
    57    17    18    2
    58    78    72   am
    59    68    70   am
    60    68    69    2
    61    70    71    1
    62   100    97    1
    63    54    56    1
    64    54    55    1
    65    72    73    2
    66    72    71    1
    67    96    97    1
    68    97    98    1
    69    71    74    1
    70    35    34    1
    71    76    74    1
    72    88    89    1
    73    88    91    1
    74    88    87    1
    75    89    90    2
    76    34    33    2
    77    34    36    1
    78    32    33    1
    79    32    31    1
    80    91    92    1
    81    74    75    1
    82    98    99    2
    83    98   106   am
    84    31    30    1
    85   106   107    1
    86    75    77    1
    87    92    93    1
    88    30    27    1
    89    94    93    2
    90    93    95   am
    91   111   110    1
    92   107   110    1
    93   107   108    1
    94    27    26    1
    95    27    28    1
    96    26    24   am
    97   108   109    2
    98    24    25    2
    99    24    23    1
   100    28    29    2
   101    23    22    1
