@<TRIPOS>MOLECULE
tmp/1miwB00.pdb
 198 184 0 0 0
SMALL
GASTEIGER

@<TRIPOS>ATOM
      1  N         31.3150   39.3210   55.3120 N.3    25  GLY25      -0.1210
      2  CA        30.2710   38.9900   56.2730 C.3    25  GLY25       0.1956
      3  C         30.6420   38.0870   57.4550 C.2    25  GLY25       0.2612
      4  O         31.8260   37.7700   57.7080 O.2    25  GLY25      -0.2717
      5  N         29.6060   37.6740   58.1890 N.am   26  GLY26      -0.1942
      6  CA        29.7630   36.9820   59.4590 C.3    26  GLY26       0.2014
      7  C         30.6720   35.7800   59.3370 C.2    26  GLY26       0.2638
      8  O         31.4110   35.4420   60.2740 O.2    26  GLY26      -0.2714
      9  N         30.6330   35.1530   58.1650 N.am   27  ALA27      -0.1977
     10  CA        31.3810   33.9450   57.9510 C.3    27  ALA27       0.1597
     11  C         32.8690   34.2390   58.2140 C.2    27  ALA27       0.2287
     12  O         33.5520   33.4700   58.9080 O.2    27  ALA27      -0.2864
     13  CB        31.1130   33.4170   56.5550 C.3    27  ALA27       0.0319
     14  N         34.0870   36.7690   60.0170 N.3    29  ARG29      -0.1231
     15  CA        34.0850   36.9790   61.4780 C.3    29  ARG29       0.1694
     16  C         34.1790   35.6470   62.2280 C.2    29  ARG29       0.2592
     17  O         35.1510   35.3570   62.9430 O.2    29  ARG29      -0.2718
     18  CB        32.8070   37.7190   61.9070 C.3    29  ARG29       0.0321
     19  CG        32.7820   38.2450   63.3660 C.3    29  ARG29       0.0489
     20  CD        31.3960   38.5870   63.8720 C.3    29  ARG29       0.2205
     21  NE        30.5200   37.4470   63.6540 N.pl3  29  ARG29      -0.0865
     22  CZ        29.3590   37.4810   63.0000 C.cat  29  ARG29       0.5346
     23  NH1       28.8760   38.6290   62.4850 N.pl3  29  ARG29       0.1354
     24  NH2       28.6600   36.3560   62.8860 N.pl3  29  ARG29       0.1354
     25  N         33.1510   34.8370   62.0400 N.am   30  ASP30      -0.1974
     26  CA        33.1180   33.4960   62.6120 C.3    30  ASP30       0.1709
     27  C         34.4720   32.7630   62.4550 C.2    30  ASP30       0.2293
     28  O         35.0560   32.2630   63.4390 O.2    30  ASP30      -0.2864
     29  CB        31.9360   32.7000   62.0110 C.3    30  ASP30       0.1436
     30  CG        30.5550   33.3910   62.2570 C.2    30  ASP30       0.3671
     31  OD1       30.4270   34.0830   63.3370 O.co2  30  ASP30      -0.2456
     32  OD2       29.5620   33.2850   61.4300 O.co2  30  ASP30      -0.2456
     33  N         34.3870   30.5750   65.8120 N.3    35  ARG35      -0.1245
     34  CA        33.0080   30.0400   65.7820 C.3    35  ARG35       0.1563
     35  C         32.7760   28.9970   64.6960 C.2    35  ARG35       0.2260
     36  O         33.5620   28.9040   63.7330 O.2    35  ARG35      -0.2867
     37  CB        32.0350   31.1590   65.4290 C.3    35  ARG35       0.0307
     38  CG        31.2950   31.6770   66.5910 C.3    35  ARG35       0.0489
     39  CD        30.6050   32.9610   66.3260 C.3    35  ARG35       0.2205
     40  NE        29.3110   32.8320   66.9290 N.pl3  35  ARG35      -0.0865
     41  CZ        28.1910   33.0290   66.2910 C.cat  35  ARG35       0.5346
     42  NH1       28.1910   33.4140   65.0090 N.pl3  35  ARG35       0.1354
     43  NH2       27.0590   32.8560   66.9510 N.pl3  35  ARG35       0.1354
     44  N         28.9860   30.6910   60.0950 N.3    38  GLY38      -0.1210
     45  CA        27.6530   31.0270   59.5910 C.3    38  GLY38       0.1956
     46  C         27.5310   30.9000   58.0790 C.2    38  GLY38       0.2611
     47  O         28.1710   30.0690   57.4480 O.2    38  GLY38      -0.2717
     48  N         26.7190   31.6920   57.4260 N.am   39  ASP39      -0.1973
     49  CA        26.7340   31.3400   56.0210 C.3    39  ASP39       0.1709
     50  C         27.5040   32.2690   55.0740 C.2    39  ASP39       0.2293
     51  O         27.5800   33.4610   55.3230 O.2    39  ASP39      -0.2864
     52  CB        25.3910   30.7220   55.5390 C.3    39  ASP39       0.1436
     53  CG        24.2210   31.6680   55.6520 C.2    39  ASP39       0.3671
     54  OD1       24.4690   32.8790   55.7810 O.co2  39  ASP39      -0.2456
     55  OD2       23.0270   31.3020   55.5900 O.co2  39  ASP39      -0.2456
     56  N         28.9970   34.5890   52.2990 N.3    41  ASP41      -0.1239
     57  CA        28.5790   35.5740   51.2780 C.3    41  ASP41       0.1674
     58  C         29.7110   36.0880   50.4220 C.2    41  ASP41       0.2266
     59  O         30.8570   36.2900   50.9190 O.2    41  ASP41      -0.2867
     60  CB        27.9180   36.8000   51.8910 C.3    41  ASP41       0.1410
     61  CG        26.6210   36.4800   52.5630 C.2    41  ASP41       0.3668
     62  OD1       25.8980   35.4840   52.1410 O.co2  41  ASP41      -0.2456
     63  OD2       26.2620   37.1900   53.5390 O.co2  41  ASP41      -0.2456
     64  N         25.9630   53.1740   50.3550 N.3    84  ASP84      -0.1239
     65  CA        24.5860   53.2240   50.9130 C.3    84  ASP84       0.1674
     66  C         23.7340   54.5400   50.8940 C.2    84  ASP84       0.2266
     67  O         23.1210   54.8600   51.9210 O.2    84  ASP84      -0.2867
     68  CB        24.6310   52.7070   52.3840 C.3    84  ASP84       0.1410
     69  CG        24.2450   51.2310   52.5220 C.2    84  ASP84       0.3668
     70  OD1       23.6540   50.6660   51.5740 O.co2  84  ASP84      -0.2456
     71  OD2       24.4980   50.5540   53.5500 O.co2  84  ASP84      -0.2456
     72  N         30.6510   50.5680   54.5160 N.3    99  ARG99      -0.1231
     73  CA        29.2200   50.7920   54.7130 C.3    99  ARG99       0.1694
     74  C         28.5740   49.7300   55.6130 C.2    99  ARG99       0.2592
     75  O         27.3390   49.6580   55.7620 O.2    99  ARG99      -0.2718
     76  CB        28.5360   50.7990   53.3480 C.3    99  ARG99       0.0321
     77  CG        28.4600   49.4110   52.6990 C.3    99  ARG99       0.0489
     78  CD        27.0830   48.9650   52.2650 C.3    99  ARG99       0.2205
     79  NE        27.2160   47.9270   51.2570 N.pl3  99  ARG99      -0.0865
     80  CZ        26.8460   46.6620   51.4330 C.cat  99  ARG99       0.5346
     81  NH1       26.3040   46.2810   52.5890 N.pl3  99  ARG99       0.1354
     82  NH2       27.0020   45.7700   50.4510 N.pl3  99  ARG99       0.1354
     83  N         29.4130   48.8890   56.1950 N.am  100  ARG100     -0.1966
     84  CA        28.9270   47.7660   56.9620 C.3   100  ARG100      0.1729
     85  C         28.8330   48.1750   58.4180 C.2   100  ARG100      0.2616
     86  O         29.5370   49.1110   58.8210 O.2   100  ARG100     -0.2715
     87  CB        29.8790   46.6060   56.7710 C.3   100  ARG100      0.0348
     88  CG        30.2060   46.3500   55.3180 C.3   100  ARG100      0.0492
     89  CD        30.5290   44.9180   55.0120 C.3   100  ARG100      0.2205
     90  NE        30.3950   44.6210   53.5880 N.pl3 100  ARG100     -0.0865
     91  CZ        29.8670   43.5050   53.0990 C.cat 100  ARG100      0.5346
     92  NH1       29.3990   42.5810   53.9170 N.pl3 100  ARG100      0.1354
     93  NH2       29.8060   43.3040   51.7930 N.pl3 100  ARG100      0.1354
     94  N         27.9870   47.4920   59.2010 N.am  101  ASP101     -0.1971
     95  CA        27.6310   47.9240   60.5660 C.3   101  ASP101      0.1709
     96  C         28.7810   47.9360   61.5810 C.2   101  ASP101      0.2293
     97  O         29.0850   48.9690   62.1500 O.2   101  ASP101     -0.2864
     98  CB        26.4480   47.1300   61.1150 C.3   101  ASP101      0.1436
     99  CG        26.6820   45.6100   61.0700 C.2   101  ASP101      0.3671
    100  OD1       27.8110   45.1840   60.7070 O.co2 101  ASP101     -0.2456
    101  OD2       25.8040   44.7630   61.3920 O.co2 101  ASP101     -0.2456
    102  N         32.1310   42.6550   61.4710 N.3   104  ASN104     -0.1240
    103  CA        31.4130   42.3550   60.2320 C.3   104  ASN104      0.1653
    104  C         32.0240   42.9110   58.9310 C.2   104  ASN104      0.2266
    105  O         31.5790   42.6050   57.8070 O.2   104  ASN104     -0.2867
    106  CB        29.9790   42.8010   60.4250 C.3   104  ASN104      0.1155
    107  CG        29.3100   42.0400   61.5600 C.2   104  ASN104      0.2627
    108  OD1       29.9330   41.1580   62.1690 O.2   104  ASN104     -0.2716
    109  ND2       28.0440   42.3560   61.8460 N.am  104  ASN104     -0.0877
    110  N         20.4330   54.0140   59.7030 N.3   141  ASP141     -0.1239
    111  CA        19.6110   52.8170   59.7770 C.3   141  ASP141      0.1674
    112  C         19.5340   52.4050   61.2250 C.2   141  ASP141      0.2266
    113  O         20.4070   51.6950   61.7370 O.2   141  ASP141     -0.2867
    114  CB        20.2220   51.7010   58.9320 C.3   141  ASP141      0.1410
    115  CG        19.4200   50.4270   58.9740 C.2   141  ASP141      0.3668
    116  OD1       18.1980   50.4730   59.2270 O.co2 141  ASP141     -0.2456
    117  OD2       19.9400   49.3240   58.7550 O.co2 141  ASP141     -0.2456
    118  N         18.0850   50.2990   62.8190 N.3   143  LEU143     -0.1231
    119  CA        18.1080   48.8740   63.1430 C.3   143  LEU143      0.1693
    120  C         19.4720   48.3890   63.6090 C.2   143  LEU143      0.2591
    121  O         19.5650   47.4010   64.3360 O.2   143  LEU143     -0.2718
    122  CB        17.6270   48.0260   61.9750 C.3   143  LEU143      0.0284
    123  CG        17.4540   46.5640   62.3540 C.3   143  LEU143      0.0019
    124  CD1       16.2410   46.3790   63.2650 C.3   143  LEU143      0.0001
    125  CD2       17.3530   45.7480   61.0840 C.3   143  LEU143      0.0001
    126  N         20.5200   49.0960   63.2000 N.am  144  ARG144     -0.1980
    127  CA        21.8750   48.7150   63.5490 C.3   144  ARG144      0.1597
    128  C         22.0280   48.5650   65.0520 C.2   144  ARG144      0.2287
    129  O         22.7590   47.6960   65.5310 O.2   144  ARG144     -0.2864
    130  CB        22.8530   49.7500   63.0430 C.3   144  ARG144      0.0334
    131  CG        23.2980   49.5080   61.6600 C.3   144  ARG144      0.0492
    132  CD        23.3560   50.7710   60.8770 C.3   144  ARG144      0.2205
    133  NE        23.2890   50.5590   59.4330 N.pl3 144  ARG144     -0.0865
    134  CZ        23.8890   51.3450   58.5450 C.cat 144  ARG144      0.5346
    135  NH1       24.6050   52.3890   58.9580 N.pl3 144  ARG144      0.1354
    136  NH2       23.7880   51.0860   57.2480 N.pl3 144  ARG144      0.1354
    137  N         20.8240   45.1310   66.2090 N.3   145  ARG145     -0.1245
    138  CA        21.8220   44.1060   65.8630 C.3   145  ARG145      0.1563
    139  C         22.9840   44.1000   66.8420 C.2   145  ARG145      0.2260
    140  O         23.4070   43.0410   67.3110 O.2   145  ARG145     -0.2867
    141  CB        22.3780   44.3380   64.4660 C.3   145  ARG145      0.0307
    142  CG        21.3360   44.4320   63.4070 C.3   145  ARG145      0.0489
    143  CD        21.8620   44.9570   62.1190 C.3   145  ARG145      0.2205
    144  NE        23.0390   44.2330   61.6800 N.pl3 145  ARG145     -0.0865
    145  CZ        22.9670   43.1090   61.0350 C.cat 145  ARG145      0.5346
    146  NH1       21.7630   42.6190   60.7730 N.pl3 145  ARG145      0.1354
    147  NH2       24.0740   42.4840   60.6450 N.pl3 145  ARG145      0.1354
    148  N         21.8380   42.2670   69.7810 N.3   148  ARG148     -0.1231
    149  CA        21.7170   40.8420   69.5580 C.3   148  ARG148      0.1694
    150  C         23.0960   40.2190   69.4280 C.2   148  ARG148      0.2592
    151  O         23.3120   39.0820   69.8450 O.2   148  ARG148     -0.2718
    152  CB        20.8970   40.5430   68.3210 C.3   148  ARG148      0.0321
    153  CG        21.7400   40.1670   67.1540 C.3   148  ARG148      0.0489
    154  CD        20.9730   39.6760   66.0600 C.3   148  ARG148      0.2205
    155  NE        21.8030   38.8400   65.2350 N.pl3 148  ARG148     -0.0865
    156  CZ        21.9660   39.0050   63.9370 C.cat 148  ARG148      0.5346
    157  NH1       21.3610   40.0180   63.3290 N.pl3 148  ARG148      0.1354
    158  NH2       22.7300   38.1450   63.2500 N.pl3 148  ARG148      0.1354
    159  N         24.0300   40.9640   68.8430 N.am  149  PHE149     -0.1976
    160  CA        25.3810   40.4440   68.6720 C.3   149  PHE149      0.1639
    161  C         25.9930   40.2470   70.0390 C.2   149  PHE149      0.2290
    162  O         26.7390   39.2720   70.2670 O.2   149  PHE149     -0.2864
    163  CB        26.2510   41.3330   67.7880 C.3   149  PHE149      0.0560
    164  CG        26.0780   41.0690   66.3540 C.ar  149  PHE149     -0.0200
    165  CD1       25.7580   42.0900   65.4860 C.ar  149  PHE149     -0.0042
    166  CD2       26.1920   39.7720   65.8620 C.ar  149  PHE149     -0.0042
    167  CE1       25.5760   41.8420   64.1200 C.ar  149  PHE149     -0.0003
    168  CE2       26.0140   39.4890   64.4850 C.ar  149  PHE149     -0.0003
    169  CZ        25.7160   40.5390   63.6220 C.ar  149  PHE149     -0.0000
    170  N         24.7310   37.0450   70.9830 N.3   152  GLU152     -0.1245
    171  CA        25.1630   35.9200   70.2000 C.3   152  GLU152      0.1567
    172  C         26.6320   35.6130   70.4010 C.2   152  GLU152      0.2260
    173  O         27.0330   34.4520   70.3280 O.2   152  GLU152     -0.2867
    174  CB        24.9340   36.2240   68.7510 C.3   152  GLU152      0.0388
    175  CG        23.7860   35.4910   68.0870 C.3   152  GLU152      0.1160
    176  CD        23.6280   35.9770   66.6520 C.2   152  GLU152      0.3649
    177  OE1       24.0130   35.2280   65.7240 O.co2 152  GLU152     -0.2457
    178  OE2       23.1880   37.1350   66.4480 O.co2 152  GLU152     -0.2457
    179  N         11.0420   43.5550   60.9940 N.3   179  ARG179     -0.1245
    180  CA        12.4930   43.5990   61.0180 C.3   179  ARG179      0.1563
    181  C         13.0360   43.4840   62.4440 C.2   179  ARG179      0.2260
    182  O         14.0250   42.7760   62.6520 O.2   179  ARG179     -0.2867
    183  CB        13.0390   44.8250   60.2540 C.3   179  ARG179      0.0307
    184  CG        13.0190   44.7050   58.6920 C.3   179  ARG179      0.0489
    185  CD        14.3130   45.1570   57.9710 C.3   179  ARG179      0.2205
    186  NE        14.4030   46.6210   57.8320 N.pl3 179  ARG179     -0.0865
    187  CZ        15.5240   47.3560   57.9840 C.cat 179  ARG179      0.5346
    188  NH1       16.6780   46.7740   58.2750 N.pl3 179  ARG179      0.1354
    189  NH2       15.5010   48.6830   57.8420 N.pl3 179  ARG179      0.1354
    190  N         16.5040   36.0830   67.3050 N.3   183  LYS183     -0.1245
    191  CA        17.9180   35.7670   67.4680 C.3   183  LYS183      0.1561
    192  C         18.3360   36.0820   68.9060 C.2   183  LYS183      0.2260
    193  O         18.7550   35.1890   69.6470 O.2   183  LYS183     -0.2867
    194  CB        18.7730   36.5540   66.4810 C.3   183  LYS183      0.0271
    195  CG        18.8670   35.8800   65.1550 C.3   183  LYS183      0.0035
    196  CD        19.0470   36.8060   63.9900 C.3   183  LYS183      0.0206
    197  CE        18.7470   35.9770   62.7670 C.3   183  LYS183      0.1093
    198  NZ        19.6630   36.2660   61.6330 N.3   183  LYS183     -0.1314
@<TRIPOS>BOND
     1    64    65    1
     2    58    59    2
     3    58    57    1
     4    82    80    1
     5    66    65    1
     6    66    67    2
     7    65    68    1
     8    79    80    2
     9    79    78    1
    10    57    60    1
    11    57    56    1
    12    80    81    1
    13    70    69   ar
    14    93    91    1
    15    60    61    1
    16    62    61   ar
    17    78    77    1
    18    68    69    1
    19    69    71   ar
    20    61    63   ar
    21    77    76    1
    22    91    90    2
    23    91    92    1
    24    76    73    1
    25    90    89    1
    26    72    73    1
    27    73    74    1
    28    89    88    1
    29    50    51    2
    30    50    49    1
    31     1     2    1
    32    88    87    1
    33    52    53    1
    34    52    49    1
    35    55    53   ar
    36    74    75    2
    37    74    83   am
    38    53    54   ar
    39    49    48    1
    40    83    84    1
    41     2     3    1
    42    13    10    1
    43    87    84    1
    44    84    85    1
    45   136   134    1
    46    48    46   am
    47    47    46    2
    48     3     4    2
    49     3     5   am
    50   105   104    2
    51   186   185    1
    52   186   187    2
    53   189   187    1
    54    10     9    1
    55    10    11    1
    56   185   184    1
    57   187   188    1
    58    46    45    1
    59     9     7   am
    60     5     6    1
    61    11    12    2
    62    85    86    2
    63    85    94   am
    64   134   135    1
    65   134   133    2
    66   184   183    1
    67   117   115   ar
    68   104   103    1
    69   114   115    1
    70   114   111    1
    71   115   116   ar
    72    94    95    1
    73     7     6    1
    74     7     8    2
    75   133   132    1
    76    45    44    1
    77   110   111    1
    78   111   112    1
    79    14    15    1
    80   103   106    1
    81   103   102    1
    82   183   180    1
    83   106   107    1
    84    95    98    1
    85    95    96    1
    86   147   145    1
    87   100    99   ar
    88   146   145    1
    89   132   131    1
    90   179   180    1
    91   180   181    1
    92   145   144    2
    93    99    98    1
    94    99   101   ar
    95   125   123    1
    96   112   113    2
    97    32    30   ar
    98    15    18    1
    99    15    16    1
   100   107   109   am
   101   107   108    2
   102    96    97    2
   103   198   197    1
   104   131   130    1
   105   144   143    1
   106    18    19    1
   107   122   123    1
   108   122   119    1
   109    29    30    1
   110    29    26    1
   111    25    16   am
   112    25    26    1
   113   143   142    1
   114    16    17    2
   115    30    31   ar
   116   123   124    1
   117   181   182    2
   118    27    26    1
   119    27    28    2
   120    23    22    1
   121   197   196    1
   122   118   119    1
   123    24    22    1
   124    22    21    2
   125   130   127    1
   126   119   120    1
   127   126   127    1
   128   126   120   am
   129   158   156    1
   130   157   156    1
   131    19    20    1
   132   142   141    1
   133   127   128    1
   134   120   121    2
   135   169   167   ar
   136   169   168   ar
   137    21    20    1
   138    36    35    2
   139   156   155    2
   140   196   195    1
   141   167   165   ar
   142   141   138    1
   143   168   166   ar
   144    35    34    1
   145    42    41    1
   146   128   129    2
   147   195   194    1
   148   155   154    1
   149    37    34    1
   150    37    38    1
   151   165   164   ar
   152   177   176   ar
   153    34    33    1
   154   166   164   ar
   155   138   137    1
   156   138   139    1
   157   154   153    1
   158    41    40    2
   159    41    43    1
   160    39    38    1
   161    39    40    1
   162   164   163    1
   163   178   176   ar
   164   194   191    1
   165   176   175    1
   166   139   140    2
   167   153   152    1
   168   190   191    1
   169   191   192    1
   170   163   160    1
   171   175   174    1
   172   152   149    1
   173   160   159    1
   174   160   161    1
   175   174   171    1
   176   159   150   am
   177   192   193    2
   178   150   149    1
   179   150   151    2
   180   149   148    1
   181   161   162    2
   182   171   172    1
   183   171   170    1
   184   173   172    2
