@<TRIPOS>MOLECULE
tmp/1miyB00.pdb
 182 168 0 0 0
SMALL
GASTEIGER

@<TRIPOS>ATOM
      1  N         31.7000   38.8060   54.7270 N.3    26  GLY26      -0.1210
      2  CA        30.6910   38.6350   55.7420 C.3    26  GLY26       0.1956
      3  C         31.1130   37.7230   56.8580 C.2    26  GLY26       0.2612
      4  O         32.2860   37.4260   57.0370 O.2    26  GLY26      -0.2717
      5  N         30.1170   37.2880   57.6170 N.am   27  GLY27      -0.1956
      6  CA        30.3110   36.5270   58.8410 C.3    27  GLY27       0.1869
      7  C         31.0590   35.2350   58.6820 C.2    27  GLY27       0.2309
      8  O         31.7910   34.8460   59.5600 O.2    27  GLY27      -0.2863
      9  N         34.2510   36.1130   59.4770 N.3    30  ARG30      -0.1245
     10  CA        34.1630   36.3420   60.9070 C.3    30  ARG30       0.1563
     11  C         34.1910   34.9870   61.6370 C.2    30  ARG30       0.2260
     12  O         35.1510   34.6910   62.3510 O.2    30  ARG30      -0.2867
     13  CB        32.9060   37.1630   61.2110 C.3    30  ARG30       0.0307
     14  CG        32.6520   37.4460   62.6620 C.3    30  ARG30       0.0489
     15  CD        31.1790   37.5650   63.0070 C.3    30  ARG30       0.2205
     16  NE        30.3880   36.4810   62.4160 N.pl3  30  ARG30      -0.0865
     17  CZ        29.1840   36.6140   61.8530 C.cat  30  ARG30       0.5346
     18  NH1       28.5520   37.7790   61.7730 N.pl3  30  ARG30       0.1354
     19  NH2       28.6040   35.5550   61.3450 N.pl3  30  ARG30       0.1354
     20  N         34.1600   30.0250   64.9060 N.3    36  ARG36      -0.1245
     21  CA        32.8080   29.4600   65.0020 C.3    36  ARG36       0.1563
     22  C         32.5720   28.4690   63.8840 C.2    36  ARG36       0.2260
     23  O         33.3250   28.4390   62.8970 O.2    36  ARG36      -0.2867
     24  CB        31.7640   30.5430   64.7920 C.3    36  ARG36       0.0307
     25  CG        31.4980   31.4010   65.9640 C.3    36  ARG36       0.0489
     26  CD        30.4900   32.4730   65.6750 C.3    36  ARG36       0.2205
     27  NE        29.1420   31.9810   65.9080 N.pl3  36  ARG36      -0.0865
     28  CZ        28.0780   32.3520   65.2100 C.cat  36  ARG36       0.5346
     29  NH1       28.1860   33.2460   64.2280 N.pl3  36  ARG36       0.1354
     30  NH2       26.8940   31.8340   65.5030 N.pl3  36  ARG36       0.1354
     31  N         26.4350   30.7570   56.5460 N.3    40  ASP40      -0.1239
     32  CA        26.2400   31.0050   55.1400 C.3    40  ASP40       0.1674
     33  C         27.5170   31.4710   54.5350 C.2    40  ASP40       0.2266
     34  O         28.0960   32.4370   55.0320 O.2    40  ASP40      -0.2867
     35  CB        25.2540   32.1330   54.9780 C.3    40  ASP40       0.1410
     36  CG        23.8460   31.6640   55.0300 C.2    40  ASP40       0.3668
     37  OD1       23.6430   30.4820   55.4010 O.co2  40  ASP40      -0.2456
     38  OD2       22.8740   32.3910   54.7100 O.co2  40  ASP40      -0.2456
     39  N         29.0670   33.6780   51.8410 N.3    42  ASP42      -0.1239
     40  CA        28.6000   34.7940   51.0210 C.3    42  ASP42       0.1674
     41  C         29.7320   35.2420   50.0800 C.2    42  ASP42       0.2266
     42  O         30.9170   35.2220   50.4780 O.2    42  ASP42      -0.2867
     43  CB        28.1430   35.9360   51.9400 C.3    42  ASP42       0.1410
     44  CG        26.6790   35.8230   52.3440 C.2    42  ASP42       0.3668
     45  OD1       26.0930   34.7240   52.2570 O.co2  42  ASP42      -0.2456
     46  OD2       26.0090   36.7890   52.7550 O.co2  42  ASP42      -0.2456
     47  N         25.0820   33.5390   48.0900 N.3    79  GLU79      -0.1245
     48  CA        24.6020   34.8960   47.7780 C.3    79  GLU79       0.1567
     49  C         25.7290   35.7990   47.2520 C.2    79  GLU79       0.2260
     50  O         26.5940   36.2640   48.0310 O.2    79  GLU79      -0.2867
     51  CB        23.9480   35.5360   49.0090 C.3    79  GLU79       0.0388
     52  CG        22.4460   35.7190   48.9040 C.3    79  GLU79       0.1160
     53  CD        21.8930   36.7310   49.8950 C.2    79  GLU79       0.3649
     54  OE1       20.6620   36.6900   50.1540 O.co2  79  GLU79      -0.2457
     55  OE2       22.6800   37.5710   50.4040 O.co2  79  GLU79      -0.2457
     56  N         30.5430   50.0170   53.5430 N.3   101  ARG101     -0.1231
     57  CA        29.1090   50.2220   53.7640 C.3   101  ARG101      0.1694
     58  C         28.4530   49.3110   54.8290 C.2   101  ARG101      0.2592
     59  O         27.3560   49.6310   55.3050 O.2   101  ARG101     -0.2718
     60  CB        28.3420   50.1110   52.4440 C.3   101  ARG101      0.0321
     61  CG        28.0890   48.6720   52.0170 C.3   101  ARG101      0.0489
     62  CD        26.8340   48.4360   51.2060 C.3   101  ARG101      0.2205
     63  NE        26.7960   47.0460   50.7680 N.pl3 101  ARG101     -0.0865
     64  CZ        26.1380   46.0610   51.3850 C.cat 101  ARG101      0.5346
     65  NH1       25.4140   46.2870   52.4800 N.pl3 101  ARG101      0.1354
     66  NH2       26.2010   44.8320   50.8940 N.pl3 101  ARG101      0.1354
     67  N         29.1120   48.2030   55.1940 N.am  102  ARG102     -0.1966
     68  CA        28.5290   47.1810   56.0890 C.3   102  ARG102      0.1729
     69  C         28.4080   47.6290   57.5580 C.2   102  ARG102      0.2616
     70  O         29.1350   48.5310   57.9950 O.2   102  ARG102     -0.2715
     71  CB        29.2920   45.8440   55.9760 C.3   102  ARG102      0.0348
     72  CG        29.4130   45.3190   54.5300 C.3   102  ARG102      0.0492
     73  CD        29.3970   43.7860   54.3220 C.3   102  ARG102      0.2205
     74  NE        29.8370   43.4430   52.9580 N.pl3 102  ARG102     -0.0865
     75  CZ        29.6600   42.2660   52.3520 C.cat 102  ARG102      0.5346
     76  NH1       29.0360   41.2650   52.9690 N.pl3 102  ARG102      0.1354
     77  NH2       30.1170   42.0970   51.1160 N.pl3 102  ARG102      0.1354
     78  N         27.4910   46.9990   58.3040 N.am  103  ASP103     -0.1971
     79  CA        27.1310   47.4250   59.6780 C.3   103  ASP103      0.1709
     80  C         28.3300   47.6140   60.6340 C.2   103  ASP103      0.2293
     81  O         28.6080   48.7340   61.0920 O.2   103  ASP103     -0.2864
     82  CB        26.0720   46.4850   60.3000 C.3   103  ASP103      0.1436
     83  CG        26.3780   45.0000   60.0670 C.2   103  ASP103      0.3671
     84  OD1       27.4830   44.5480   60.4310 O.co2 103  ASP103     -0.2456
     85  OD2       25.5760   44.2070   59.5290 O.co2 103  ASP103     -0.2456
     86  N         32.0550   42.1480   60.4550 N.3   107  ASN107     -0.1240
     87  CA        31.3660   41.8170   59.2320 C.3   107  ASN107      0.1653
     88  C         32.0870   42.3960   58.0330 C.2   107  ASN107      0.2266
     89  O         31.9510   41.9210   56.9170 O.2   107  ASN107     -0.2867
     90  CB        29.9310   42.3550   59.3120 C.3   107  ASN107      0.1155
     91  CG        29.1670   41.8020   60.5110 C.2   107  ASN107      0.2627
     92  OD1       29.7610   41.1870   61.4020 O.2   107  ASN107     -0.2716
     93  ND2       27.8480   42.0190   60.5400 N.am  107  ASN107     -0.0877
     94  N         20.4250   53.1940   58.7900 N.3   145  ASP145     -0.1239
     95  CA        19.5170   52.0420   58.9540 C.3   145  ASP145      0.1674
     96  C         19.3020   51.7120   60.4240 C.2   145  ASP145      0.2266
     97  O         20.0500   50.9260   61.0020 O.2   145  ASP145     -0.2867
     98  CB        20.0440   50.7960   58.2330 C.3   145  ASP145      0.1410
     99  CG        19.1480   49.5730   58.4280 C.2   145  ASP145      0.3668
    100  OD1       18.0870   49.6820   59.0910 O.co2 145  ASP145     -0.2456
    101  OD2       19.4330   48.4530   57.9470 O.co2 145  ASP145     -0.2456
    102  N         17.5770   49.8240   62.1840 N.3   147  LEU147     -0.1231
    103  CA        17.5640   48.4400   62.6130 C.3   147  LEU147      0.1693
    104  C         18.9560   47.9710   62.9990 C.2   147  LEU147      0.2591
    105  O         19.0840   47.0450   63.7840 O.2   147  LEU147     -0.2718
    106  CB        16.9610   47.5200   61.5490 C.3   147  LEU147      0.0284
    107  CG        16.9310   46.0310   61.9230 C.3   147  LEU147      0.0019
    108  CD1       15.9150   45.7520   62.9950 C.3   147  LEU147      0.0001
    109  CD2       16.6440   45.1940   60.7070 C.3   147  LEU147      0.0001
    110  N         19.9920   48.6240   62.4740 N.am  148  ARG148     -0.1980
    111  CA        21.3700   48.2370   62.7840 C.3   148  ARG148      0.1597
    112  C         21.6200   48.0990   64.2960 C.2   148  ARG148      0.2287
    113  O         22.5520   47.4090   64.7240 O.2   148  ARG148     -0.2864
    114  CB        22.3830   49.1970   62.1560 C.3   148  ARG148      0.0334
    115  CG        23.1550   48.6190   60.9800 C.3   148  ARG148      0.0492
    116  CD        23.0210   49.4610   59.7340 C.3   148  ARG148      0.2205
    117  NE        23.6410   48.8450   58.5710 N.pl3 148  ARG148     -0.0865
    118  CZ        24.2490   49.5200   57.5980 C.cat 148  ARG148      0.5346
    119  NH1       24.3310   50.8480   57.6420 N.pl3 148  ARG148      0.1354
    120  NH2       24.7790   48.8650   56.5690 N.pl3 148  ARG148      0.1354
    121  N         20.2840   44.6390   66.0290 N.3   151  ARG151     -0.1245
    122  CA        21.1960   43.5660   65.6800 C.3   151  ARG151      0.1563
    123  C         22.5330   43.7020   66.3580 C.2   151  ARG151      0.2260
    124  O         23.1320   42.6800   66.7080 O.2   151  ARG151     -0.2867
    125  CB        21.4080   43.4840   64.1800 C.3   151  ARG151      0.0307
    126  CG        21.2910   44.8290   63.4670 C.3   151  ARG151      0.0489
    127  CD        21.1670   44.7870   61.9320 C.3   151  ARG151      0.2205
    128  NE        22.4190   44.4130   61.2810 N.pl3 151  ARG151     -0.0865
    129  CZ        22.8110   43.1510   61.0980 C.cat 151  ARG151      0.5346
    130  NH1       22.0430   42.1450   61.5230 N.pl3 151  ARG151      0.1354
    131  NH2       23.9670   42.8820   60.4860 N.pl3 151  ARG151      0.1354
    132  N         21.5390   41.8480   69.2020 N.3   154  ARG154     -0.1231
    133  CA        21.3900   40.4230   68.9620 C.3   154  ARG154      0.1694
    134  C         22.7630   39.8230   68.8370 C.2   154  ARG154      0.2592
    135  O         23.0140   38.7490   69.3610 O.2   154  ARG154     -0.2718
    136  CB        20.5810   40.1240   67.6970 C.3   154  ARG154      0.0321
    137  CG        21.3090   39.2010   66.6810 C.3   154  ARG154      0.0489
    138  CD        20.7770   39.2980   65.2820 C.3   154  ARG154      0.2205
    139  NE        21.6220   38.6490   64.2910 N.pl3 154  ARG154     -0.0865
    140  CZ        21.5420   38.9090   62.9910 C.cat 154  ARG154      0.5346
    141  NH1       20.6650   39.8020   62.5660 N.pl3 154  ARG154      0.1354
    142  NH2       22.3170   38.2870   62.1070 N.pl3 154  ARG154      0.1354
    143  N         23.6540   40.5100   68.1330 N.am  155  PHE155     -0.1976
    144  CA        24.9930   39.9790   67.9530 C.3   155  PHE155      0.1639
    145  C         25.5940   39.6620   69.3330 C.2   155  PHE155      0.2290
    146  O         26.1750   38.5820   69.5470 O.2   155  PHE155     -0.2864
    147  CB        25.8630   40.9400   67.1410 C.3   155  PHE155      0.0560
    148  CG        25.7750   40.7290   65.6570 C.ar  155  PHE155     -0.0200
    149  CD1       25.3760   41.7620   64.8220 C.ar  155  PHE155     -0.0042
    150  CD2       26.0970   39.4950   65.0870 C.ar  155  PHE155     -0.0042
    151  CE1       25.3090   41.5760   63.4350 C.ar  155  PHE155     -0.0003
    152  CE2       26.0430   39.2970   63.6960 C.ar  155  PHE155     -0.0003
    153  CZ        25.6490   40.3400   62.8710 C.ar  155  PHE155     -0.0000
    154  N         24.4730   36.5700   70.1960 N.3   158  GLU158     -0.1245
    155  CA        24.7770   35.4770   69.2720 C.3   158  GLU158      0.1567
    156  C         26.1990   35.0150   69.4520 C.2   158  GLU158      0.2260
    157  O         26.4910   33.8280   69.3820 O.2   158  GLU158     -0.2867
    158  CB        24.5130   35.9070   67.7860 C.3   158  GLU158      0.0388
    159  CG        23.5620   35.0100   66.9350 C.3   158  GLU158      0.1160
    160  CD        23.4600   35.4460   65.4590 C.2   158  GLU158      0.3649
    161  OE1       24.0570   34.7660   64.5720 O.co2 158  GLU158     -0.2457
    162  OE2       22.7890   36.4770   65.1930 O.co2 158  GLU158     -0.2457
    163  N         10.4930   43.3050   60.4540 N.3   185  ARG185     -0.1245
    164  CA        11.9400   43.3420   60.4950 C.3   185  ARG185      0.1563
    165  C         12.4880   43.2880   61.9150 C.2   185  ARG185      0.2260
    166  O         13.5370   42.6810   62.1330 O.2   185  ARG185     -0.2867
    167  CB        12.4770   44.5430   59.7180 C.3   185  ARG185      0.0307
    168  CG        12.5520   44.2910   58.2120 C.3   185  ARG185      0.0489
    169  CD        13.8890   44.6370   57.5750 C.3   185  ARG185      0.2205
    170  NE        14.2400   46.0360   57.8210 N.pl3 185  ARG185     -0.0865
    171  CZ        15.4510   46.5630   57.6580 C.cat 185  ARG185      0.5346
    172  NH1       16.4690   45.8150   57.2390 N.pl3 185  ARG185      0.1354
    173  NH2       15.6450   47.8500   57.9190 N.pl3 185  ARG185      0.1354
    174  N         16.1670   35.9020   66.8040 N.3   192  LYS192     -0.1245
    175  CA        17.4980   35.3640   66.7590 C.3   192  LYS192      0.1561
    176  C         18.1090   35.6780   68.0870 C.2   192  LYS192      0.2260
    177  O         18.6350   34.7950   68.7570 O.2   192  LYS192     -0.2867
    178  CB        18.2960   36.0160   65.6360 C.3   192  LYS192      0.0271
    179  CG        18.0390   35.4260   64.2460 C.3   192  LYS192      0.0035
    180  CD        18.6010   36.3730   63.2040 C.3   192  LYS192      0.0206
    181  CE        18.4600   35.8040   61.8080 C.3   192  LYS192      0.1093
    182  NZ        19.5240   36.2990   60.8530 N.3   192  LYS192     -0.1314
@<TRIPOS>BOND
     1    49    48    1
     2    49    50    2
     3    48    47    1
     4    48    51    1
     5    52    51    1
     6    52    53    1
     7    53    54   ar
     8    53    55   ar
     9    41    42    2
    10    41    40    1
    11    63    62    1
    12    63    64    2
    13    66    64    1
    14    40    39    1
    15    40    43    1
    16    77    75    1
    17    62    61    1
    18    64    65    1
    19    43    44    1
    20    61    60    1
    21    45    44   ar
    22    44    46   ar
    23    75    74    2
    24    75    76    1
    25    60    57    1
    26    74    73    1
    27    56    57    1
    28    57    58    1
    29    73    72    1
    30    72    71    1
    31    33    34    2
    32    33    32    1
    33    38    36   ar
    34     1     2    1
    35    58    67   am
    36    58    59    2
    37    35    36    1
    38    35    32    1
    39    36    37   ar
    40    32    31    1
    41    67    68    1
    42     2     3    1
    43    71    68    1
    44    68    69    1
    45   120   118    1
    46     3     4    2
    47     3     5   am
    48    89    88    2
    49   172   171    1
    50    69    70    2
    51    69    78   am
    52   169   170    1
    53   169   168    1
    54   118   119    1
    55   118   117    2
    56     5     6    1
    57   171   170    2
    58   171   173    1
    59   101    99   ar
    60    88    87    1
    61   168   167    1
    62    98    99    1
    63    98    95    1
    64    78    79    1
    65    99   100   ar
    66   117   116    1
    67     7     6    1
    68     7     8    2
    69    94    95    1
    70    95    96    1
    71    87    90    1
    72    87    86    1
    73    90    91    1
    74     9    10    1
    75    85    83   ar
    76    79    82    1
    77    79    80    1
    78   167   164    1
    79   116   115    1
    80    83    82    1
    81    83    84   ar
    82    96    97    2
    83   163   164    1
    84   131   129    1
    85   164   165    1
    86    91    93   am
    87    91    92    2
    88    80    81    2
    89   109   107    1
    90   182   181    1
    91    10    13    1
    92    10    11    1
    93   115   114    1
    94   129   128    2
    95   129   130    1
    96    13    14    1
    97   128   127    1
    98    19    17    1
    99   106   107    1
   100   106   103    1
   101    11    12    2
   102    18    17    1
   103   181   180    1
   104    17    16    2
   105   165   166    2
   106   107   108    1
   107   127   126    1
   108   142   140    1
   109   114   111    1
   110   102   103    1
   111    16    15    1
   112   110   111    1
   113   110   104   am
   114   141   140    1
   115   103   104    1
   116    14    15    1
   117   111   112    1
   118   153   151   ar
   119   153   152   ar
   120    23    22    2
   121   140   139    2
   122   104   105    2
   123   180   179    1
   124   151   149   ar
   125   126   125    1
   126   152   150   ar
   127    22    21    1
   128   125   122    1
   129    29    28    1
   130   179   178    1
   131   139   138    1
   132   112   113    2
   133   161   160   ar
   134    24    21    1
   135    24    25    1
   136   149   148   ar
   137    20    21    1
   138   150   148   ar
   139   162   160   ar
   140    28    30    1
   141    28    27    2
   142   138   137    1
   143   160   159    1
   144   178   175    1
   145   148   147    1
   146    26    27    1
   147    26    25    1
   148   122   121    1
   149   122   123    1
   150   123   124    2
   151   137   136    1
   152   175   174    1
   153   175   176    1
   154   159   158    1
   155   147   144    1
   156   136   133    1
   157   158   155    1
   158   144   143    1
   159   144   145    1
   160   176   177    2
   161   143   134   am
   162   134   133    1
   163   134   135    2
   164   133   132    1
   165   155   156    1
   166   155   154    1
   167   145   146    2
   168   157   156    2
