@<TRIPOS>MOLECULE
tmp/1mj3F01.pdb
 201 190 0 0 0
SMALL
GASTEIGER

@<TRIPOS>ATOM
      1  N         49.7030   58.8240  161.9070 N.3    26  LYS26      -0.1231
      2  CA        48.9120   58.2820  160.7830 C.3    26  LYS26       0.1693
      3  C         49.0820   59.2330  159.6550 C.2    26  LYS26       0.2592
      4  O         48.8790   58.8710  158.4890 O.2    26  LYS26      -0.2718
      5  CB        47.4030   58.1640  161.0610 C.3    26  LYS26       0.0285
      6  CG        47.0140   56.8890  161.8030 C.3    26  LYS26       0.0035
      7  CD        45.6580   57.0570  162.4700 C.3    26  LYS26       0.0206
      8  CE        45.2950   55.8010  163.2730 C.3    26  LYS26       0.1093
      9  NZ        43.8940   55.9040  163.7660 N.3    26  LYS26      -0.1314
     10  N         49.3930   60.4770  159.9910 N.am   27  ALA27      -0.1966
     11  CA        49.8140   61.3500  158.9530 C.3    27  ALA27       0.1728
     12  C         51.3380   61.5360  158.8470 C.2    27  ALA27       0.2616
     13  O         51.7900   62.5360  158.3410 O.2    27  ALA27      -0.2715
     14  CB        49.0070   62.6760  158.9880 C.3    27  ALA27       0.0334
     15  N         52.1270   60.5660  159.2710 N.am   28  LEU28      -0.1977
     16  CA        53.6170   60.8010  159.3490 C.3    28  LEU28       0.1596
     17  C         54.0230   62.1920  159.9820 C.2    28  LEU28       0.2287
     18  O         54.8220   62.9780  159.4040 O.2    28  LEU28      -0.2864
     19  CB        54.2490   60.6340  157.9750 C.3    28  LEU28       0.0297
     20  CG        54.1520   59.1990  157.4320 C.3    28  LEU28       0.0022
     21  CD1       54.8280   59.0890  156.0560 C.3    28  LEU28       0.0001
     22  CD2       54.8590   58.2610  158.3590 C.3    28  LEU28       0.0001
     23  N         52.4990   65.0200  159.9130 N.3    30  ALA30      -0.1245
     24  CA        52.2060   66.2630  159.2050 C.3    30  ALA30       0.1562
     25  C         51.8040   67.4600  160.0650 C.2    30  ALA30       0.2260
     26  O         50.8760   67.4200  160.8700 O.2    30  ALA30      -0.2867
     27  CB        51.1450   66.0500  158.1050 C.3    30  ALA30       0.0290
     28  N         59.8280   56.6700  162.1350 N.3    62  LYS62      -0.1245
     29  CA        59.6800   56.5710  160.6890 C.3    62  LYS62       0.1561
     30  C         59.6920   57.9700  160.1150 C.2    62  LYS62       0.2260
     31  O         60.0880   58.2530  158.9430 O.2    62  LYS62      -0.2867
     32  CB        58.4100   55.7350  160.2980 C.3    62  LYS62       0.0271
     33  CG        57.9220   55.9540  158.8180 C.3    62  LYS62       0.0035
     34  CD        56.7790   55.0430  158.3490 C.3    62  LYS62       0.0206
     35  CE        56.8060   54.8880  156.8130 C.3    62  LYS62       0.1093
     36  NZ        55.4630   54.4090  156.2550 N.3    62  LYS62      -0.1314
     37  N         56.6520   64.9280  157.9930 N.3    66  ALA66      -0.1231
     38  CA        56.5910   64.9220  156.5090 C.3    66  ALA66       0.1694
     39  C         56.1250   66.1990  155.9390 C.2    66  ALA66       0.2593
     40  O         55.8740   66.3070  154.7710 O.2    66  ALA66      -0.2718
     41  CB        55.7060   63.7850  155.9820 C.3    66  ALA66       0.0304
     42  N         55.9650   67.2090  156.7310 N.am   67  GLY67      -0.1942
     43  CA        55.6630   68.4600  156.0500 C.3    67  GLY67       0.2014
     44  C         54.5190   69.1800  156.7010 C.2    67  GLY67       0.2639
     45  O         53.9180   68.6510  157.6510 O.2    67  GLY67      -0.2714
     46  N         54.2590   70.4050  156.2600 N.am   68  ALA68      -0.1963
     47  CA        52.9600   71.0060  156.5500 C.3    68  ALA68       0.1728
     48  C         51.8320   70.0520  156.0310 C.2    68  ALA68       0.2616
     49  O         52.0700   69.0580  155.2990 O.2    68  ALA68      -0.2715
     50  CB        52.8520   72.3970  155.9650 C.3    68  ALA68       0.0334
     51  N         50.6080   70.3220  156.4680 N.am   69  ASP69      -0.1957
     52  CA        49.5280   69.3520  156.1890 C.3    69  ASP69       0.1840
     53  C         48.9090   69.7910  154.8790 C.2    69  ASP69       0.2622
     54  O         48.3210   70.8750  154.7760 O.2    69  ASP69      -0.2715
     55  CB        48.5420   69.3390  157.3400 C.3    69  ASP69       0.1450
     56  CG        47.3610   68.3710  157.1300 C.2    69  ASP69       0.3671
     57  OD1       46.7550   68.3700  156.0310 O.co2  69  ASP69      -0.2456
     58  OD2       46.9420   67.6270  158.0420 O.co2  69  ASP69      -0.2456
     59  N         49.1300   68.9820  153.8420 N.am   70  ILE70      -0.1963
     60  CA        48.7280   69.3720  152.4730 C.3    70  ILE70       0.1727
     61  C         47.2250   69.4900  152.2590 C.2    70  ILE70       0.2616
     62  O         46.6880   70.3960  151.5640 O.2    70  ILE70      -0.2715
     63  CB        49.3640   68.3920  151.5130 C.3    70  ILE70       0.0290
     64  CG1       50.8520   68.5390  151.6420 C.3    70  ILE70       0.0022
     65  CG2       48.8820   68.6330  150.0550 C.3    70  ILE70       0.0023
     66  CD1       51.6650   67.2960  151.0990 C.3    70  ILE70       0.0001
     67  N         46.5160   68.6330  152.9560 N.am   71  LYS71      -0.1977
     68  CA        45.0220   68.7530  152.9950 C.3    71  LYS71       0.1596
     69  C         44.4730   70.0720  153.6120 C.2    71  LYS71       0.2287
     70  O         43.5000   70.6420  153.0500 O.2    71  LYS71      -0.2864
     71  CB        44.4490   67.4800  153.6160 C.3    71  LYS71       0.0298
     72  CG        45.3810   66.2350  153.2810 C.3    71  LYS71       0.0038
     73  CD        44.7000   64.9510  153.8160 C.3    71  LYS71       0.0206
     74  CE        45.5800   63.6850  153.8140 C.3    71  LYS71       0.1093
     75  NZ        44.7180   62.5410  154.2730 N.3    71  LYS71      -0.1314
     76  N         45.9430   72.9160  153.3500 N.3    73  MET73      -0.1245
     77  CA        46.4130   74.0120  152.4760 C.3    73  MET73       0.1570
     78  C         45.7200   74.0790  151.1280 C.2    73  MET73       0.2261
     79  O         45.7880   75.1120  150.3860 O.2    73  MET73      -0.2867
     80  CB        47.9610   73.8270  152.1940 C.3    73  MET73       0.0387
     81  CG        48.8340   73.9990  153.4690 C.3    73  MET73       0.0595
     82  SD        50.5340   74.4690  153.0020 S.3    73  MET73      -0.1393
     83  CE        51.1620   72.8790  152.5070 C.3    73  MET73       0.0692
     84  N         50.2460   80.7530  157.6600 N.3    85  LEU85      -0.1245
     85  CA        51.3300   79.9860  158.3380 C.3    85  LEU85       0.1561
     86  C         52.1260   80.8930  159.3050 C.2    85  LEU85       0.2260
     87  O         53.3860   80.9990  159.3340 O.2    85  LEU85      -0.2867
     88  CB        52.2040   79.2250  157.3070 C.3    85  LEU85       0.0270
     89  CG        51.3890   78.1100  156.5740 C.3    85  LEU85       0.0019
     90  CD1       52.2890   77.2880  155.6630 C.3    85  LEU85       0.0001
     91  CD2       50.5520   77.1470  157.4790 C.3    85  LEU85       0.0001
     92  N         54.3900   79.6950  162.7610 N.3    88  TRP88      -0.1241
     93  CA        55.2140   78.6330  162.3450 C.3    88  TRP88       0.1605
     94  C         56.6490   78.8000  162.8320 C.2    88  TRP88       0.2264
     95  O         57.3670   77.8310  162.8950 O.2    88  TRP88      -0.2867
     96  CB        55.1760   78.5310  160.8290 C.3    88  TRP88       0.0550
     97  CG        54.3420   77.4000  160.4060 C.ar   88  TRP88       0.0003
     98  CD1       52.9610   77.3020  160.4930 C.ar   88  TRP88       0.0946
     99  CD2       54.8000   76.1570  159.8730 C.ar   88  TRP88       0.0152
    100  NE1       52.5430   76.0790  160.0250 N.ar   88  TRP88      -0.2442
    101  CE2       53.6400   75.3450  159.6470 C.ar   88  TRP88       0.0810
    102  CE3       56.0710   75.6400  159.5460 C.ar   88  TRP88       0.0012
    103  CZ2       53.7150   74.0720  159.0850 C.ar   88  TRP88       0.0191
    104  CZ3       56.1510   74.3680  159.0080 C.ar   88  TRP88       0.0001
    105  CH2       54.9800   73.5950  158.7680 C.ar   88  TRP88       0.0015
    106  N         61.9070   60.4540  158.0790 N.3   105  TYR105     -0.1241
    107  CA        61.6550   61.5960  157.2180 C.3   105  TYR105      0.1605
    108  C         61.5850   62.9480  157.9670 C.2   105  TYR105      0.2264
    109  O         60.8040   63.0790  158.9080 O.2   105  TYR105     -0.2867
    110  CB        60.3030   61.4260  156.5610 C.3   105  TYR105      0.0534
    111  CG        60.2190   60.3080  155.5580 C.ar  105  TYR105     -0.0201
    112  CD1       61.0780   60.2650  154.4460 C.ar  105  TYR105     -0.0009
    113  CD2       59.2530   59.2930  155.7130 C.ar  105  TYR105     -0.0009
    114  CE1       60.9610   59.1980  153.4650 C.ar  105  TYR105      0.0417
    115  CE2       59.1550   58.2400  154.8060 C.ar  105  TYR105      0.0417
    116  CZ        59.9950   58.2180  153.6760 C.ar  105  TYR105      0.1957
    117  OH        59.8880   57.2150  152.7500 O.3   105  TYR105     -0.2866
    118  N         60.7800   66.3580  155.9800 N.3   107  LEU107     -0.1231
    119  CA        60.6030   66.8860  154.6420 C.3   107  LEU107      0.1693
    120  C         59.7660   68.1150  154.6490 C.2   107  LEU107      0.2593
    121  O         58.8140   68.2280  155.4320 O.2   107  LEU107     -0.2718
    122  CB        59.8350   65.8280  153.7610 C.3   107  LEU107      0.0284
    123  CG        60.4390   64.4110  153.7010 C.3   107  LEU107      0.0019
    124  CD1       59.5300   63.4900  152.8260 C.3   107  LEU107      0.0001
    125  CD2       61.8820   64.3910  153.1300 C.3   107  LEU107      0.0001
    126  N         60.0200   69.0210  153.7400 N.am  108  GLY108     -0.1942
    127  CA        59.2120   70.2380  153.5950 C.3   108  GLY108      0.2014
    128  C         59.2400   71.0030  154.9360 C.2   108  GLY108      0.2639
    129  O         60.3060   71.1940  155.5300 O.2   108  GLY108     -0.2714
    130  N         58.0780   71.3050  155.4820 N.am  109  GLY109     -0.1954
    131  CA        57.9620   71.9730  156.7680 C.3   109  GLY109      0.1869
    132  C         58.6680   71.2460  157.8820 C.2   109  GLY109      0.2309
    133  O         59.1380   71.8390  158.8490 O.2   109  GLY109     -0.2863
    134  N         62.3060   72.0860  157.6630 N.3   112  GLU112     -0.1245
    135  CA        62.4050   73.4490  158.0900 C.3   112  GLU112      0.1567
    136  C         62.3360   73.5910  159.6170 C.2   112  GLU112      0.2260
    137  O         63.0870   74.4080  160.2270 O.2   112  GLU112     -0.2867
    138  CB        61.3380   74.2840  157.4130 C.3   112  GLU112      0.0388
    139  CG        61.6610   74.5200  155.9080 C.3   112  GLU112      0.1160
    140  CD        60.4650   75.1770  155.1350 C.2   112  GLU112      0.3649
    141  OE1       59.2930   74.7450  155.3790 O.co2 112  GLU112     -0.2457
    142  OE2       60.6870   76.1520  154.3570 O.co2 112  GLU112     -0.2457
    143  N         60.3950   68.8450  149.1330 N.3   131  PRO131     -0.2102
    144  CA        59.6710   68.3950  147.9340 C.3   131  PRO131      0.1504
    145  C         58.5840   69.3570  147.5850 C.2   131  PRO131      0.2572
    146  O         57.6720   69.0130  146.7830 O.2   131  PRO131     -0.2718
    147  CB        59.0160   67.0490  148.3980 C.3   131  PRO131      0.0282
    148  CG        58.7580   67.1890  149.8860 C.3   131  PRO131      0.0208
    149  CD        59.9060   68.1720  150.3910 C.3   131  PRO131      0.0893
    150  N         58.5740   70.5380  148.1680 N.am  132  GLU132     -0.2033
    151  CA        57.5470   71.5130  147.8180 C.3   132  GLU132      0.1288
    152  C         57.3250   71.6770  146.2960 C.3   132  GLU132      0.2036
    153  O         56.1440   71.8270  145.8010 O.3   132  GLU132     -0.2185
    154  CB        57.8600   72.8690  148.4340 C.3   132  GLU132      0.0362
    155  CG        57.5240   72.9100  149.8990 C.3   132  GLU132      0.1159
    156  CD        58.6920   72.4700  150.8170 C.2   132  GLU132      0.3649
    157  OE1       59.6760   71.8100  150.3580 O.co2 132  GLU132     -0.2457
    158  OE2       58.6540   72.8300  152.0190 O.co2 132  GLU132     -0.2457
    159  N         54.7110   69.9380  144.4210 N.3   135  LEU135     -0.1245
    160  CA        53.3240   70.2510  144.6640 C.3   135  LEU135      0.1561
    161  C         53.0140   71.5760  144.0220 C.2   135  LEU135      0.2260
    162  O         51.9490   72.1650  144.2520 O.2   135  LEU135     -0.2867
    163  CB        53.0860   70.4010  146.1950 C.3   135  LEU135      0.0270
    164  CG        53.5210   69.3120  147.1270 C.3   135  LEU135      0.0019
    165  CD1       53.3430   69.6750  148.6150 C.3   135  LEU135      0.0001
    166  CD2       52.7030   68.0610  146.8570 C.3   135  LEU135      0.0001
    167  N         54.6530   74.4210  144.7460 N.3   137  THR137     -0.1203
    168  CA        54.9080   75.5270  145.5880 C.3   137  THR137      0.1994
    169  C         56.4110   75.6400  145.9510 C.2   137  THR137      0.2617
    170  O         57.2350   74.8340  145.3880 O.2   137  THR137     -0.2717
    171  CB        53.9660   75.5310  146.8230 C.3   137  THR137      0.1784
    172  OG1       54.0920   76.7720  147.5340 O.3   137  THR137     -0.2211
    173  CG2       54.3020   74.4620  147.8320 C.3   137  THR137      0.0376
    174  N         56.8150   76.5740  146.8010 N.am  138  ILE138     -0.1979
    175  CA        58.2600   76.5400  147.1840 C.3   138  ILE138      0.1595
    176  C         58.2920   76.4270  148.7070 C.2   138  ILE138      0.2287
    177  O         57.2240   76.6650  149.3310 O.2   138  ILE138     -0.2864
    178  CB        59.0110   77.7900  146.7170 C.3   138  ILE138      0.0276
    179  CG1       58.4870   79.0710  147.4210 C.3   138  ILE138      0.0022
    180  CG2       58.8110   78.0550  145.2280 C.3   138  ILE138      0.0022
    181  CD1       59.5950   80.2300  147.3670 C.3   138  ILE138      0.0001
    182  N         58.3280   77.4630  152.4240 N.3   140  GLY140     -0.1210
    183  CA        57.8440   78.7120  152.9510 C.3   140  GLY140      0.1956
    184  C         58.2330   78.9250  154.4220 C.2   140  GLY140      0.2611
    185  O         57.6390   79.7810  155.0870 O.2   140  GLY140     -0.2717
    186  N         59.1690   78.1540  154.9760 N.am  141  ALA141     -0.1979
    187  CA        59.5310   78.5240  156.3940 C.3   141  ALA141      0.1597
    188  C         61.0320   78.3430  156.5420 C.2   141  ALA141      0.2287
    189  O         61.4810   77.7710  157.4940 O.2   141  ALA141     -0.2864
    190  CB        58.7860   77.6290  157.4140 C.3   141  ALA141      0.0319
    191  N         65.4070   63.7360  148.0360 N.3   165  ARG165     -0.1245
    192  CA        65.8440   63.6220  149.4330 C.3   165  ARG165      0.1563
    193  C         67.3540   63.3930  149.5510 C.2   165  ARG165      0.2260
    194  O         67.9740   62.8430  148.6590 O.2   165  ARG165     -0.2867
    195  CB        65.2280   62.3640  150.0420 C.3   165  ARG165      0.0307
    196  CG        63.6760   62.4810  150.2480 C.3   165  ARG165      0.0489
    197  CD        63.1190   61.1480  150.8920 C.3   165  ARG165      0.2205
    198  NE        61.9210   61.0040  150.1370 N.pl3 165  ARG165     -0.0865
    199  CZ        61.6130   60.0470  149.3420 C.cat 165  ARG165      0.5346
    200  NH1       62.3920   58.9540  149.1750 N.pl3 165  ARG165      0.1354
    201  NH2       60.4340   60.2140  148.7390 N.pl3 165  ARG165      0.1354
@<TRIPOS>BOND
     1   161   162    2
     2   161   160    1
     3   159   160    1
     4   160   163    1
     5   167   168    1
     6   180   178    1
     7   170   169    2
     8   168   169    1
     9   168   171    1
    10   153   152    1
    11   169   174   am
    12   163   164    1
    13   152   151    1
    14   178   175    1
    15   178   179    1
    16   146   145    2
    17   174   175    1
    18   171   172    1
    19   171   173    1
    20   166   164    1
    21   164   165    1
    22   175   176    1
    23   181   179    1
    24   145   144    1
    25   145   150   am
    26   151   150    1
    27   151   154    1
    28   144   147    1
    29   144   143    1
    30   191   192    1
    31   147   148    1
    32   154   155    1
    33   194   193    2
    34   176   177    2
    35   201   199    1
    36   143   149    1
    37   200   199    1
    38   199   198    2
    39   192   193    1
    40   192   195    1
    41   148   149    1
    42   155   156    1
    43   195   196    1
    44    65    63    1
    45   198   197    1
    46   196   197    1
    47   157   156   ar
    48    79    78    2
    49   156   158   ar
    50    66    64    1
    51    78    77    1
    52    63    64    1
    53    63    60    1
    54    62    61    2
    55    80    77    1
    56    80    81    1
    57    61    60    1
    58    61    67   am
    59   182   183    1
    60    60    59    1
    61    77    76    1
    62    83    82    1
    63   117   116    1
    64   124   123    1
    65   183   184    1
    66    67    68    1
    67    68    69    1
    68    68    71    1
    69    82    81    1
    70    70    69    2
    71   125   123    1
    72    72    71    1
    73    72    73    1
    74   114   116   ar
    75   114   112   ar
    76   127   126    1
    77   127   128    1
    78   116   115   ar
    79   123   122    1
    80   126   120   am
    81   122   119    1
    82    74    73    1
    83    74    75    1
    84    59    53   am
    85   142   140   ar
    86   184   186   am
    87   184   185    2
    88   112   111   ar
    89   119   120    1
    90   119   118    1
    91   120   121    2
    92    40    39    2
    93    54    53    2
    94   115   113   ar
    95    53    52    1
    96   128   130   am
    97   128   129    2
    98   186   187    1
    99   140   141   ar
   100   140   139    1
   101    49    48    2
   102   130   131    1
   103   111   113   ar
   104   111   110    1
   105    90    89    1
   106   139   138    1
   107    39    38    1
   108    39    42   am
   109    50    47    1
   110    41    38    1
   111    48    51   am
   112    48    47    1
   113    57    56   ar
   114    43    44    1
   115    43    42    1
   116    21    20    1
   117    52    51    1
   118    52    55    1
   119    36    35    1
   120    46    47    1
   121    46    44   am
   122   187   188    1
   123   187   190    1
   124    38    37    1
   125   188   189    2
   126   110   107    1
   127    89    88    1
   128    89    91    1
   129    44    45    2
   130   131   132    1
   131    35    34    1
   132    56    55    1
   133    56    58   ar
   134   107   108    1
   135   107   106    1
   136    88    85    1
   137   138   135    1
   138    20    19    1
   139    20    22    1
   140    84    85    1
   141   134   135    1
   142   132   133    2
   143   108   109    2
   144    19    16    1
   145   135   136    1
   146    27    24    1
   147    85    86    1
   148    13    12    2
   149    34    33    1
   150     4     3    2
   151   105   104   ar
   152   105   103   ar
   153    33    32    1
   154    12    11    1
   155    12    15   am
   156    31    30    2
   157    11    14    1
   158    11    10    1
   159   104   102   ar
   160   103   101   ar
   161    24    23    1
   162    24    25    1
   163    15    16    1
   164    86    87    2
   165    16    17    1
   166    18    17    2
   167   102    99   ar
   168   136   137    2
   169   101    99   ar
   170   101   100   ar
   171     3    10   am
   172     3     2    1
   173    99    97   ar
   174   100    98   ar
   175    25    26    2
   176    30    29    1
   177    32    29    1
   178    97    98   ar
   179    97    96    1
   180    29    28    1
   181     2     5    1
   182     2     1    1
   183    96    93    1
   184     5     6    1
   185     6     7    1
   186    93    92    1
   187    93    94    1
   188     7     8    1
   189    94    95    2
   190     8     9    1
