@<TRIPOS>MOLECULE
tmp/1mj4A00.pdb
 192 188 0 0 0
SMALL
GASTEIGER

@<TRIPOS>ATOM
      1  N         13.2720   -0.1760    5.0660 N.3    22  VAL22      -0.1245
      2  CA        14.0110   -1.4160    5.3140 C.3    22  VAL22       0.1561
      3  C         13.4180   -2.1120    6.4910 C.2    22  VAL22       0.2260
      4  O         12.6590   -1.5520    7.2700 O.2    22  VAL22      -0.2867
      5  CB        15.5140   -1.1820    5.5280 C.3    22  VAL22       0.0252
      6  CG1       16.1820   -0.5580    4.2960 C.3    22  VAL22       0.0019
      7  CG2       15.7840   -0.3340    6.7580 C.3    22  VAL22       0.0019
      8  N         13.5660    5.1070    6.4010 N.3    31  VAL31      -0.1245
      9  CA        14.8630    5.7100    6.5680 C.3    31  VAL31       0.1561
     10  C         15.1270    6.7940    5.5050 C.2    31  VAL31       0.2260
     11  O         16.2620    7.2850    5.4110 O.2    31  VAL31      -0.2867
     12  CB        16.0120    4.6820    6.5720 C.3    31  VAL31       0.0252
     13  CG1       15.8740    3.7650    7.7790 C.3    31  VAL31       0.0019
     14  CG2       16.0820    3.8950    5.2920 C.3    31  VAL31       0.0019
     15  N         17.3660    9.7380    6.4310 N.3    34  PHE34      -0.1241
     16  CA        18.7280    9.4070    6.7960 C.3    34  PHE34       0.1605
     17  C         19.6200    9.1460    5.6040 C.2    34  PHE34       0.2264
     18  O         20.8430    9.2850    5.7450 O.2    34  PHE34      -0.2867
     19  CB        18.7520    8.1730    7.7160 C.3    34  PHE34       0.0534
     20  CG        20.1120    7.7550    8.1400 C.ar   34  PHE34      -0.0203
     21  CD1       20.8710    8.5380    9.0240 C.ar   34  PHE34      -0.0042
     22  CD2       20.6830    6.6080    7.6190 C.ar   34  PHE34      -0.0042
     23  CE1       22.1590    8.1860    9.3280 C.ar   34  PHE34      -0.0003
     24  CE2       21.9890    6.2810    7.9490 C.ar   34  PHE34      -0.0003
     25  CZ        22.6930    7.0130    8.8080 C.ar   34  PHE34      -0.0000
     26  N         24.2810    8.6080    5.1890 N.3    38  HIS38      -0.1227
     27  CA        24.9120    7.3300    5.4400 C.3    38  HIS38       0.1737
     28  C         26.4070    7.4250    5.2020 C.2    38  HIS38       0.2438
     29  O         26.8230    7.8700    4.1240 O.2    38  HIS38      -0.2733
     30  CB        24.3400    6.2490    4.5260 C.3    38  HIS38       0.0758
     31  CG        24.8950    4.8900    4.7860 C.ar   38  HIS38       0.0818
     32  ND1       25.6630    4.2110    3.8820 N.ar   38  HIS38      -0.2268
     33  CD2       24.8700    4.1160    5.9040 C.ar   38  HIS38       0.1154
     34  CE1       26.0330    3.0510    4.4220 C.ar   38  HIS38       0.1986
     35  NE2       25.5580    2.9450    5.6630 N.ar   38  HIS38      -0.2212
     36  N         27.2460    7.0080    6.1260 N.am   39  PRO39      -0.2718
     37  CA        28.6940    7.0250    5.8960 C.3    39  PRO39       0.1535
     38  C         29.1390    6.3170    4.5760 C.2    39  PRO39       0.2599
     39  O         28.6600    5.2500    4.3860 O.2    39  PRO39      -0.2715
     40  CB        29.3070    6.4330    7.1830 C.3    39  PRO39       0.0310
     41  CG        28.3410    6.8820    8.2020 C.3    39  PRO39       0.0237
     42  CD        26.9530    6.6610    7.5260 C.3    39  PRO39       0.0939
     43  N         29.9180    7.0310    3.7120 N.am   40  GLY40      -0.1955
     44  CA        30.3070    6.6010    2.3490 C.3    40  GLY40       0.1869
     45  C         29.2470    6.9070    1.2800 C.2    40  GLY40       0.2309
     46  O         29.4140    6.6480    0.0760 O.2    40  GLY40      -0.2863
     47  N         25.3880    2.6070   -1.1850 N.3    44  LYS44      -0.1231
     48  CA        25.5340    1.3130   -0.5360 C.3    44  LYS44       0.1693
     49  C         24.3030    0.9610    0.2630 C.2    44  LYS44       0.2591
     50  O         23.8070   -0.1810    0.2080 O.2    44  LYS44      -0.2718
     51  CB        26.7490    1.3340    0.3490 C.3    44  LYS44       0.0285
     52  CG        27.9500    0.9610   -0.4000 C.3    44  LYS44       0.0035
     53  CD        28.2070   -0.4910    0.0280 C.3    44  LYS44       0.0206
     54  CE        29.6970   -0.7100    0.0870 C.3    44  LYS44       0.1093
     55  NZ        29.9830   -1.8080   -0.9420 N.3    44  LYS44      -0.1314
     56  N         23.7720    1.8900    1.0600 N.am   45  LEU45      -0.1980
     57  CA        22.5900    1.6670    1.8360 C.3    45  LEU45       0.1596
     58  C         21.4590    1.2150    0.9490 C.2    45  LEU45       0.2287
     59  O         20.6720    0.3040    1.3130 O.2    45  LEU45      -0.2864
     60  CB        22.2510    2.9460    2.6460 C.3    45  LEU45       0.0297
     61  CG        21.0000    2.9180    3.5180 C.3    45  LEU45       0.0022
     62  CD1       21.0960    3.9820    4.5890 C.3    45  LEU45       0.0001
     63  CD2       19.7160    3.1020    2.7150 C.3    45  LEU45       0.0001
     64  N         21.2790   -0.5580   -1.5970 N.3    47  LEU47      -0.1231
     65  CA        21.2360   -1.9790   -1.9570 C.3    47  LEU47       0.1693
     66  C         20.1780   -2.7310   -1.1860 C.2    47  LEU47       0.2591
     67  O         19.6410   -3.7210   -1.7010 O.2    47  LEU47      -0.2718
     68  CB        22.5990   -2.5860   -1.7730 C.3    47  LEU47       0.0284
     69  CG        23.7040   -2.1700   -2.6990 C.3    47  LEU47       0.0019
     70  CD1       25.0500   -2.6770   -2.2260 C.3    47  LEU47       0.0001
     71  CD2       23.3900   -2.5480   -4.1620 C.3    47  LEU47       0.0001
     72  N         19.8850   -2.3130    0.0290 N.am   48  ALA48      -0.1980
     73  CA        18.9330   -2.9930    0.8940 C.3    48  ALA48       0.1597
     74  C         17.5370   -2.4480    0.8100 C.2    48  ALA48       0.2287
     75  O         16.6430   -2.9770    1.4600 O.2    48  ALA48      -0.2864
     76  CB        19.4600   -2.9380    2.3540 C.3    48  ALA48       0.0319
     77  N         17.7390   -5.7990    6.1930 N.3    53  LEU53      -0.1245
     78  CA        19.1390   -5.4170    6.3550 C.3    53  LEU53       0.1561
     79  C         20.0310   -6.6150    6.6050 C.2    53  LEU53       0.2260
     80  O         21.2390   -6.5530    6.2560 O.2    53  LEU53      -0.2867
     81  CB        19.3120   -4.4150    7.5150 C.3    53  LEU53       0.0270
     82  CG        18.6650   -3.0460    7.2620 C.3    53  LEU53       0.0019
     83  CD1       18.7610   -2.1940    8.5000 C.3    53  LEU53       0.0001
     84  CD2       19.3630   -2.3490    6.1220 C.3    53  LEU53       0.0001
     85  N         22.9260   -7.9730    4.2840 N.3    56  PHE56      -0.1227
     86  CA        23.9370   -6.9620    3.9790 C.3    56  PHE56       0.1736
     87  C         24.7450   -6.6270    5.2010 C.2    56  PHE56       0.2595
     88  O         26.0170   -6.6360    5.1910 O.2    56  PHE56      -0.2718
     89  CB        23.2970   -5.6880    3.4380 C.3    56  PHE56       0.0547
     90  CG        22.5820   -5.8940    2.1390 C.ar   56  PHE56      -0.0202
     91  CD1       21.2280   -6.2000    2.0840 C.ar   56  PHE56      -0.0042
     92  CD2       23.3240   -5.8310    0.9190 C.ar   56  PHE56      -0.0042
     93  CE1       20.6120   -6.4450    0.8560 C.ar   56  PHE56      -0.0003
     94  CE2       22.6590   -6.0750   -0.2390 C.ar   56  PHE56      -0.0003
     95  CZ        21.3240   -6.4020   -0.3040 C.ar   56  PHE56      -0.0000
     96  N         24.0910   -6.3590    6.3420 N.am   57  TRP57      -0.1976
     97  CA        24.7530   -6.0310    7.5790 C.3    57  TRP57       0.1640
     98  C         25.6560   -7.1640    8.0740 C.2    57  TRP57       0.2290
     99  O         26.6300   -6.9120    8.7530 O.2    57  TRP57      -0.2864
    100  CB        23.7970   -5.6110    8.6480 C.3    57  TRP57       0.0576
    101  CG        23.3530   -4.1780    8.6010 C.ar   57  TRP57       0.0006
    102  CD1       23.5080   -3.2780    7.5810 C.ar   57  TRP57       0.0946
    103  CD2       22.7050   -3.4550    9.6450 C.ar   57  TRP57       0.0152
    104  NE1       23.0650   -2.0530    7.9330 N.ar   57  TRP57      -0.2442
    105  CE2       22.5810   -2.1160    9.2170 C.ar   57  TRP57       0.0810
    106  CE3       22.2450   -3.7750   10.9150 C.ar   57  TRP57       0.0012
    107  CZ2       22.0330   -1.1370   10.0050 C.ar   57  TRP57       0.0191
    108  CZ3       21.7140   -2.8150   11.7190 C.ar   57  TRP57       0.0001
    109  CH2       21.6310   -1.4900   11.2690 C.ar   57  TRP57       0.0015
    110  N         29.1300   -6.3510    7.3310 N.3    60  TYR60      -0.1241
    111  CA        29.5740   -5.0430    7.8110 C.3    60  TYR60       0.1605
    112  C         29.3200   -4.9060    9.2930 C.2    60  TYR60       0.2264
    113  O         28.3540   -4.2920    9.7420 O.2    60  TYR60      -0.2867
    114  CB        28.8900   -3.9330    6.9970 C.3    60  TYR60       0.0534
    115  CG        29.3410   -3.9020    5.5740 C.ar   60  TYR60      -0.0201
    116  CD1       30.5480   -3.2540    5.2480 C.ar   60  TYR60      -0.0009
    117  CD2       28.6600   -4.4660    4.5360 C.ar   60  TYR60      -0.0009
    118  CE1       31.0160   -3.2510    3.9550 C.ar   60  TYR60       0.0417
    119  CE2       29.0950   -4.4340    3.2340 C.ar   60  TYR60       0.0417
    120  CZ        30.2550   -3.8160    2.9390 C.ar   60  TYR60       0.1957
    121  OH        30.7620   -3.7100    1.6410 O.3    60  TYR60      -0.2866
    122  N         30.6270   -3.0980   11.4400 N.3    62  VAL62      -0.1231
    123  CA        30.5580   -1.7260   11.9560 C.3    62  VAL62       0.1692
    124  C         29.1070   -1.3750   12.3750 C.2    62  VAL62       0.2592
    125  O         28.9430   -0.5010   13.2180 O.2    62  VAL62      -0.2718
    126  CB        31.0350   -0.7480   10.8650 C.3    62  VAL62       0.0266
    127  CG1       30.0960   -0.6050    9.6880 C.3    62  VAL62       0.0020
    128  CG2       31.3660    0.6060   11.4950 C.3    62  VAL62       0.0020
    129  N         28.0930   -2.0390   11.8550 N.am   63  HIS63      -0.1976
    130  CA        26.7390   -1.7900   12.2950 C.3    63  HIS63       0.1656
    131  C         26.3880   -2.4050   13.6520 C.2    63  HIS63       0.2291
    132  O         25.3330   -2.1380   14.1990 O.2    63  HIS63      -0.2864
    133  CB        25.7110   -2.2060   11.2240 C.3    63  HIS63       0.0771
    134  CG        25.9180   -1.5530    9.9230 C.ar   63  HIS63       0.0820
    135  ND1       26.6820   -2.1240    8.9210 N.ar   63  HIS63      -0.2267
    136  CD2       25.5490   -0.3320    9.4410 C.ar   63  HIS63       0.1154
    137  CE1       26.6850   -1.2660    7.8890 C.ar   63  HIS63       0.1986
    138  NE2       25.9770   -0.1810    8.1410 N.ar   63  HIS63      -0.2212
    139  N         26.9330   -1.9780   16.7730 N.3    65  GLN65      -0.1245
    140  CA        27.2290   -1.0130   17.8170 C.3    65  GLN65       0.1566
    141  C         25.9150   -0.5050   18.3580 C.2    65  GLN65       0.2260
    142  O         24.9560   -0.3090   17.6010 O.2    65  GLN65      -0.2867
    143  CB        28.0390    0.1510   17.3360 C.3    65  GLN65       0.0367
    144  CG        29.4180   -0.1860   16.7870 C.3    65  GLN65       0.0905
    145  CD        30.1180    1.0280   16.3280 C.2    65  GLN65       0.2608
    146  OE1       30.5350    1.8530   17.1860 O.2    65  GLN65      -0.2717
    147  NE2       30.2340    1.2670   15.0440 N.am   65  GLN65      -0.0878
    148  N         25.0100    2.4210   19.2440 N.3    67  HIS67      -0.1226
    149  CA        24.5680    3.7050   18.6960 C.3    67  HIS67       0.1752
    150  C         23.9060    3.5090   17.3520 C.2    67  HIS67       0.2595
    151  O         22.9030    4.1700   17.0360 O.2    67  HIS67      -0.2718
    152  CB        25.6950    4.7330   18.5940 C.3    67  HIS67       0.0759
    153  CG        26.5190    4.6650   17.3450 C.ar   67  HIS67       0.0818
    154  ND1       26.1540    5.3850   16.2290 N.ar   67  HIS67      -0.2268
    155  CD2       27.6940    4.0900   17.0450 C.ar   67  HIS67       0.1154
    156  CE1       27.0770    5.1800   15.2940 C.ar   67  HIS67       0.1986
    157  NE2       28.0310    4.4090   15.7870 N.ar   67  HIS67      -0.2212
    158  N         24.3810    2.5600   16.5340 N.am   68  VAL68      -0.1980
    159  CA        23.7900    2.3250   15.2250 C.3    68  VAL68       0.1595
    160  C         22.3850    1.8030   15.3530 C.2    68  VAL68       0.2287
    161  O         21.4580    2.1780   14.6530 O.2    68  VAL68      -0.2864
    162  CB        24.6540    1.3600   14.3880 C.3    68  VAL68       0.0276
    163  CG1       23.9840    1.0200   13.0800 C.3    68  VAL68       0.0022
    164  CG2       26.0620    1.9350   14.1610 C.3    68  VAL68       0.0022
    165  N         20.0950    4.5860   16.5160 N.3    71  LEU71      -0.1231
    166  CA        19.8880    5.4930   15.4150 C.3    71  LEU71       0.1693
    167  C         18.7980    4.9890   14.4850 C.2    71  LEU71       0.2591
    168  O         17.8420    5.6610   14.1570 O.2    71  LEU71      -0.2718
    169  CB        21.2050    5.7350   14.6680 C.3    71  LEU71       0.0284
    170  CG        21.1350    6.6450   13.4390 C.3    71  LEU71       0.0019
    171  CD1       22.5680    7.2570   13.2020 C.3    71  LEU71       0.0001
    172  CD2       20.7110    5.9560   12.1940 C.3    71  LEU71       0.0001
    173  N         18.9160    3.6960   14.1050 N.am   72  LEU72      -0.1980
    174  CA        17.9130    3.0980   13.2540 C.3    72  LEU72       0.1596
    175  C         16.5300    3.1450   13.8930 C.2    72  LEU72       0.2287
    176  O         15.5440    3.3930   13.2170 O.2    72  LEU72      -0.2864
    177  CB        18.3250    1.6560   12.9260 C.3    72  LEU72       0.0297
    178  CG        17.3700    0.8790   12.0410 C.3    72  LEU72       0.0022
    179  CD1       17.1450    1.4820   10.6690 C.3    72  LEU72       0.0001
    180  CD2       17.8040   -0.5900   11.9160 C.3    72  LEU72       0.0001
    181  N         13.7590    5.7200   13.2580 N.3    75  TYR75      -0.1241
    182  CA        13.0450    5.6690   11.9960 C.3    75  TYR75       0.1605
    183  C         11.9880    4.5830   11.9560 C.2    75  TYR75       0.2264
    184  O         11.3820    4.3400   10.9380 O.2    75  TYR75      -0.2867
    185  CB        14.0610    5.5270   10.8530 C.3    75  TYR75       0.0534
    186  CG        14.9840    6.7230   10.7590 C.ar   75  TYR75      -0.0201
    187  CD1       14.6550    7.8540   10.0910 C.ar   75  TYR75      -0.0009
    188  CD2       16.2240    6.6920   11.3820 C.ar   75  TYR75      -0.0009
    189  CE1       15.4810    8.9530   10.0710 C.ar   75  TYR75       0.0417
    190  CE2       17.0730    7.7750   11.3620 C.ar   75  TYR75       0.0417
    191  CZ        16.7000    8.9000   10.7050 C.ar   75  TYR75       0.1957
    192  OH        17.5710    9.9930   10.6750 O.3    75  TYR75      -0.2866
@<TRIPOS>BOND
     1    71    69    1
     2    69    70    1
     3    69    68    1
     4    65    68    1
     5    65    64    1
     6    65    66    1
     7    67    66    2
     8    66    72   am
     9    47    48    1
    10    55    54    1
    11    48    49    1
    12    48    51    1
    13    52    53    1
    14    52    51    1
    15    95    94   ar
    16    95    93   ar
    17    94    92   ar
    18    53    54    1
    19    72    73    1
    20    46    45    2
    21    50    49    2
    22    49    56   am
    23    74    73    1
    24    74    75    2
    25    93    91   ar
    26    73    76    1
    27    92    90   ar
    28    58    59    2
    29    58    57    1
    30    56    57    1
    31    45    44    1
    32   121   120    1
    33    57    60    1
    34    91    90   ar
    35    90    89    1
    36    44    43    1
    37    60    61    1
    38    63    61    1
    39   120   119   ar
    40   120   118   ar
    41   119   117   ar
    42    89    86    1
    43    61    62    1
    44    43    38   am
    45    32    34   ar
    46    32    31   ar
    47   118   116   ar
    48    86    85    1
    49    86    87    1
    50    29    28    2
    51     6     5    1
    52    39    38    2
    53    34    35   ar
    54    30    31    1
    55    30    27    1
    56   117   115   ar
    57    38    37    1
    58    31    33   ar
    59     1     2    1
    60    26    27    1
    61    88    87    2
    62    87    96   am
    63    28    27    1
    64    28    36   am
    65   116   115   ar
    66    14    12    1
    67     2     5    1
    68     2     3    1
    69    11    10    2
    70    10     9    1
    71     5     7    1
    72   115   114    1
    73    17    18    2
    74    17    16    1
    75    35    33   ar
    76    37    36    1
    77    37    40    1
    78    84    82    1
    79    36    42    1
    80    77    78    1
    81    80    79    2
    82    96    97    1
    83    78    79    1
    84    78    81    1
    85     8     9    1
    86    15    16    1
    87     3     4    2
    88     9    12    1
    89    12    13    1
    90    16    19    1
    91   114   111    1
    92    40    41    1
    93    82    81    1
    94    82    83    1
    95   110   111    1
    96    42    41    1
    97    97    98    1
    98    97   100    1
    99   102   104   ar
   100   102   101   ar
   101    22    24   ar
   102    22    20   ar
   103    19    20    1
   104   111   112    1
   105   137   138   ar
   106   137   135   ar
   107   104   105   ar
   108    24    25   ar
   109    98    99    2
   110    20    21   ar
   111   138   136   ar
   112   101   100    1
   113   101   103   ar
   114    25    23   ar
   115   135   134   ar
   116    21    23   ar
   117   105   103   ar
   118   105   107   ar
   119   112   113    2
   120   136   134   ar
   121   103   106   ar
   122   127   126    1
   123   134   133    1
   124   107   109   ar
   125   189   187   ar
   126   189   191   ar
   127   187   186   ar
   128   179   178    1
   129   192   191    1
   130   191   190   ar
   131   186   185    1
   132   186   188   ar
   133   185   182    1
   134   126   128    1
   135   126   123    1
   136   106   108   ar
   137   184   183    2
   138   133   130    1
   139   109   108   ar
   140   190   188   ar
   141   122   123    1
   142   129   130    1
   143   129   124   am
   144   180   178    1
   145   123   124    1
   146   183   182    1
   147   182   181    1
   148   178   177    1
   149   172   170    1
   150   130   131    1
   151   124   125    2
   152   177   174    1
   153   163   162    1
   154   171   170    1
   155   176   175    2
   156   174   175    1
   157   174   173    1
   158   170   169    1
   159   131   132    2
   160   173   167   am
   161   168   167    2
   162   164   162    1
   163   162   159    1
   164   167   166    1
   165   161   160    2
   166   169   166    1
   167   147   145   am
   168   159   160    1
   169   159   158    1
   170   156   157   ar
   171   156   154   ar
   172   166   165    1
   173   157   155   ar
   174   154   153   ar
   175   145   144    1
   176   145   146    2
   177   158   150   am
   178   139   140    1
   179   144   143    1
   180   151   150    2
   181   155   153   ar
   182   143   140    1
   183   153   152    1
   184   150   149    1
   185   142   141    2
   186   140   141    1
   187   152   149    1
   188   149   148    1
