@<TRIPOS>MOLECULE
tmp/1mjhB00.pdb
 183 179 0 0 0
SMALL
GASTEIGER

@<TRIPOS>ATOM
      1  N         20.3780  -13.8500   31.5010 N.3     8  TYR8       -0.1228
      2  CA        19.9450  -14.0550   30.1360 C.3     8  TYR8        0.1721
      3  C         18.7780  -15.0320   30.1890 C.2     8  TYR8        0.2437
      4  O         18.9620  -16.2550   30.3700 O.2     8  TYR8       -0.2733
      5  CB        21.0780  -14.6510   29.2540 C.3     8  TYR8        0.0547
      6  CG        20.6100  -15.1780   27.9260 C.ar    8  TYR8       -0.0200
      7  CD1       19.8090  -14.3790   27.0960 C.ar    8  TYR8       -0.0009
      8  CD2       20.9490  -16.4510   27.4810 C.ar    8  TYR8       -0.0009
      9  CE1       19.3780  -14.8460   25.8680 C.ar    8  TYR8        0.0417
     10  CE2       20.5130  -16.9190   26.2490 C.ar    8  TYR8        0.0417
     11  CZ        19.7340  -16.1200   25.4640 C.ar    8  TYR8        0.1957
     12  OH        19.2670  -16.5630   24.2270 O.3     8  TYR8       -0.2866
     13  N         17.5700  -14.5120   30.2160 N.am    9  PRO9       -0.2718
     14  CA        16.3690  -15.3350   30.2510 C.3     9  PRO9        0.1535
     15  C         15.9940  -15.6980   28.8090 C.2     9  PRO9        0.2599
     16  O         15.9040  -14.8190   27.9590 O.2     9  PRO9       -0.2715
     17  CB        15.3190  -14.4000   30.8410 C.3     9  PRO9        0.0310
     18  CG        15.7480  -12.9960   30.4950 C.3     9  PRO9        0.0237
     19  CD        17.2250  -13.0620   30.2030 C.3     9  PRO9        0.0939
     20  N         15.8390  -16.9970   28.5640 N.am   10  THR10      -0.1937
     21  CA        15.5070  -17.4110   27.2000 C.3    10  THR10       0.2028
     22  C         14.2730  -18.2850   27.1550 C.2    10  THR10       0.2642
     23  O         14.0630  -19.1040   28.0630 O.2    10  THR10      -0.2714
     24  CB        16.7100  -18.1920   26.5790 C.3    10  THR10       0.1808
     25  OG1       16.2620  -18.6160   25.2860 O.3    10  THR10      -0.2208
     26  CG2       17.0720  -19.4360   27.3700 C.3    10  THR10       0.0379
     27  N         13.4350  -18.1000   26.1420 N.am   11  ASP11      -0.1971
     28  CA        12.2900  -18.9430   25.8700 C.3    11  ASP11       0.1709
     29  C         12.5600  -19.7890   24.6280 C.2    11  ASP11       0.2293
     30  O         11.6410  -20.4050   24.0840 O.2    11  ASP11      -0.2864
     31  CB        11.0350  -18.0490   25.6310 C.3    11  ASP11       0.1436
     32  CG        11.2740  -17.0430   24.5170 C.2    11  ASP11       0.3671
     33  OD1       12.3990  -17.0260   23.9510 O.co2  11  ASP11      -0.2456
     34  OD2       10.3780  -16.2090   24.2190 O.co2  11  ASP11      -0.2456
     35  N         15.0920  -14.5520   21.0790 N.3    16  ALA16      -0.1245
     36  CA        16.0100  -14.8130   22.2100 C.3    16  ALA16       0.1562
     37  C         17.3670  -15.2620   21.6650 C.2    16  ALA16       0.2260
     38  O         18.4260  -15.0640   22.2740 O.2    16  ALA16      -0.2867
     39  CB        15.3980  -15.8510   23.1700 C.3    16  ALA16       0.0290
     40  N         18.5750  -18.5460   32.2910 N.3    37  LEU37      -0.1231
     41  CA        17.2860  -18.8750   32.8960 C.3    37  LEU37       0.1693
     42  C         16.1730  -19.2160   31.9390 C.2    37  LEU37       0.2592
     43  O         15.9730  -18.4530   31.0080 O.2    37  LEU37      -0.2718
     44  CB        16.8850  -17.6060   33.7250 C.3    37  LEU37       0.0284
     45  CG        15.4730  -17.6640   34.2840 C.3    37  LEU37       0.0019
     46  CD1       15.2880  -18.7870   35.3180 C.3    37  LEU37       0.0001
     47  CD2       15.1760  -16.3170   34.9950 C.3    37  LEU37       0.0001
     48  N         15.4630  -20.3310   32.1440 N.am   38  HIS38      -0.1962
     49  CA        14.2360  -20.6200   31.4300 C.3    38  HIS38       0.1787
     50  C         13.0950  -20.8350   32.4210 C.2    38  HIS38       0.2620
     51  O         13.3240  -21.5160   33.4510 O.2    38  HIS38      -0.2715
     52  CB        14.3740  -21.8590   30.4860 C.3    38  HIS38       0.0785
     53  CG        13.0680  -22.1200   29.7960 C.ar   38  HIS38       0.0821
     54  ND1       12.2210  -23.1750   29.9790 N.ar   38  HIS38      -0.2267
     55  CD2       12.4440  -21.4010   28.8690 C.ar   38  HIS38       0.1154
     56  CE1       11.1550  -23.0660   29.1820 C.ar   38  HIS38       0.1986
     57  NE2       11.2640  -21.9480   28.4680 N.ar   38  HIS38      -0.2212
     58  N         11.9780  -20.1700   32.1450 N.am   39  VAL39      -0.1977
     59  CA        10.8050  -20.3150   33.0110 C.3    39  VAL39       0.1596
     60  C          9.7750  -21.1470   32.2780 C.2    39  VAL39       0.2287
     61  O          9.1970  -20.7820   31.2470 O.2    39  VAL39      -0.2864
     62  CB        10.1270  -18.9780   33.3930 C.3    39  VAL39       0.0276
     63  CG1        8.9280  -19.1510   34.3300 C.3    39  VAL39       0.0022
     64  CG2       11.1660  -18.1150   34.0780 C.3    39  VAL39       0.0022
     65  N          6.1080  -21.7430   32.0120 N.3    41  ASP41      -0.1239
     66  CA         4.9420  -20.9750   32.4070 C.3    41  ASP41       0.1674
     67  C          3.9400  -21.8690   33.1460 C.2    41  ASP41       0.2266
     68  O          3.4300  -22.8090   32.5270 O.2    41  ASP41      -0.2867
     69  CB         4.3040  -20.3480   31.1660 C.3    41  ASP41       0.1410
     70  CG         3.2560  -19.3090   31.5230 C.2    41  ASP41       0.3668
     71  OD1        2.6730  -19.4160   32.6240 O.co2  41  ASP41      -0.2456
     72  OD2        3.0330  -18.3900   30.7180 O.co2  41  ASP41      -0.2456
     73  N          6.6780  -16.2800   33.9730 N.3    90  PRO90      -0.2116
     74  CA         7.9590  -15.8310   33.4460 C.3    90  PRO90       0.1372
     75  C          8.3700  -14.4450   33.8750 C.2    90  PRO90       0.2244
     76  O          9.5050  -14.2630   34.3720 O.2    90  PRO90      -0.2868
     77  CB         7.7480  -15.9070   31.9200 C.3    90  PRO90       0.0268
     78  CG         6.8820  -17.1760   31.8530 C.3    90  PRO90       0.0207
     79  CD         5.8410  -16.9640   32.9590 C.3    90  PRO90       0.0892
     80  N         11.7900  -13.7320   36.2570 N.3    94  ILE94      -0.1245
     81  CA        12.9720  -13.0070   35.7650 C.3    94  ILE94       0.1561
     82  C         13.3270  -11.8680   36.6970 C.2    94  ILE94       0.2260
     83  O         14.4780  -11.6610   37.0440 O.2    94  ILE94      -0.2867
     84  CB        12.7050  -12.5120   34.3340 C.3    94  ILE94       0.0252
     85  CG1       12.5220  -13.7340   33.4160 C.3    94  ILE94       0.0019
     86  CG2       13.8210  -11.5840   33.8300 C.3    94  ILE94       0.0019
     87  CD1       11.9540  -13.3450   32.0170 C.3    94  ILE94       0.0001
     88  N         17.8160   -9.4890   26.9110 N.3   108  MET108     -0.1230
     89  CA        16.6460  -10.3280   26.5170 C.3   108  MET108      0.1702
     90  C         16.1430   -9.8910   25.1530 C.2   108  MET108      0.2593
     91  O         16.4630   -8.7750   24.7270 O.2   108  MET108     -0.2718
     92  CB        15.5360  -10.3280   27.6290 C.3   108  MET108      0.0401
     93  CG        14.8510   -8.9260   27.7820 C.3   108  MET108      0.0596
     94  SD        13.8930   -8.7350   29.4130 S.3   108  MET108     -0.1393
     95  CE        12.7890  -10.1420   29.1610 C.3   108  MET108      0.0692
     96  N         15.2830  -10.7390   24.5420 N.am  109  GLY109     -0.1942
     97  CA        14.7250  -10.2940   23.2510 C.3   109  GLY109      0.2014
     98  C         13.5540   -9.3510   23.4670 C.2   109  GLY109      0.2640
     99  O         12.9470   -9.2740   24.5390 O.2   109  GLY109     -0.2714
    100  N         13.2040   -8.6130   22.3770 N.am  110  SER110     -0.1935
    101  CA        11.9940   -7.7930   22.4050 C.3   110  SER110      0.2055
    102  C         10.7250   -8.6420   22.2730 C.2   110  SER110      0.2643
    103  O          9.6300   -8.2340   22.6970 O.2   110  SER110     -0.2714
    104  CB        12.0050   -6.7820   21.2640 C.3   110  SER110      0.2130
    105  OG        12.0220   -7.4700   20.0080 O.3   110  SER110     -0.2179
    106  N         10.8420   -9.8140   21.6280 N.am  111  HIS111     -0.1959
    107  CA         9.7260  -10.7140   21.3560 C.3   111  HIS111      0.1787
    108  C         10.2050  -12.1470   21.5690 C.2   111  HIS111      0.2621
    109  O         11.3510  -12.3560   21.9300 O.2   111  HIS111     -0.2715
    110  CB         9.2360  -10.5870   19.8690 C.3   111  HIS111      0.0785
    111  CG         8.6930   -9.2230   19.5290 C.ar  111  HIS111      0.0821
    112  ND1        9.4350   -8.0760   19.3650 N.ar  111  HIS111     -0.2267
    113  CD2        7.3890   -8.8590   19.3200 C.ar  111  HIS111      0.1154
    114  CE1        8.6280   -7.0680   19.0880 C.ar  111  HIS111      0.1986
    115  NE2        7.3520   -7.5140   19.0530 N.ar  111  HIS111     -0.2212
    116  N          9.2600  -13.0740   21.4500 N.am  112  GLY112     -0.1940
    117  CA         9.5220  -14.4250   21.9140 C.3   112  GLY112      0.2014
    118  C          8.7770  -15.4460   21.0770 C.2   112  GLY112      0.2639
    119  O          8.8130  -15.2820   19.8550 O.2   112  GLY112     -0.2714
    120  N          8.2290  -16.4530   21.7430 N.am  113  LYS113     -0.1963
    121  CA         7.5860  -17.5200   20.9230 C.3   113  LYS113      0.1728
    122  C          6.3000  -17.0540   20.2630 C.2   113  LYS113      0.2617
    123  O          5.9810  -17.6250   19.2080 O.2   113  LYS113     -0.2715
    124  CB         7.3300  -18.7220   21.8310 C.3   113  LYS113      0.0311
    125  CG         8.5260  -19.5240   22.3270 C.3   113  LYS113      0.0038
    126  CD         9.1540  -20.2730   21.1320 C.3   113  LYS113      0.0206
    127  CE        10.0890  -21.3560   21.6220 C.3   113  LYS113      0.1093
    128  NZ        10.4200  -22.2890   20.4970 N.3   113  LYS113     -0.1314
    129  N          5.5550  -16.0460   20.7460 N.am  114  THR114     -0.1937
    130  CA         4.3810  -15.5890   20.0130 C.3   114  THR114      0.2028
    131  C          4.7560  -14.7940   18.7880 C.2   114  THR114      0.2642
    132  O          4.3840  -15.0850   17.6350 O.2   114  THR114     -0.2714
    133  CB         3.5010  -14.7280   20.9570 C.3   114  THR114      0.1808
    134  OG1        3.2920  -15.5070   22.1590 O.3   114  THR114     -0.2208
    135  CG2        2.1610  -14.3190   20.3820 C.3   114  THR114      0.0379
    136  N          5.5970  -13.7560   19.0130 N.am  115  ASN115     -0.1957
    137  CA         6.0440  -12.8770   17.9430 C.3   115  ASN115      0.1819
    138  C          4.9920  -12.5670   16.8800 C.2   115  ASN115      0.2621
    139  O          5.1830  -12.8480   15.6930 O.2   115  ASN115     -0.2715
    140  CB         7.3890  -13.3660   17.3650 C.3   115  ASN115      0.1195
    141  CG         8.0150  -12.2910   16.4980 C.2   115  ASN115      0.2630
    142  OD1        7.6890  -11.0980   16.5680 O.2   115  ASN115     -0.2716
    143  ND2        8.9700  -12.7070   15.6530 N.am  115  ASN115     -0.0877
    144  N          3.9260  -11.9100   17.3410 N.am  116  LEU116     -0.1977
    145  CA         2.8840  -11.4210   16.3900 C.3   116  LEU116      0.1596
    146  C          3.3340  -10.0910   15.8310 C.2   116  LEU116      0.2287
    147  O          3.7710   -9.1530   16.4980 O.2   116  LEU116     -0.2864
    148  CB         1.6110  -11.2970   17.2120 C.3   116  LEU116      0.0297
    149  CG         0.3050  -11.1030   16.4450 C.3   116  LEU116      0.0022
    150  CD1        0.0980  -12.3130   15.5300 C.3   116  LEU116      0.0001
    151  CD2       -0.8530  -10.9790   17.4360 C.3   116  LEU116      0.0001
    152  N          2.2940   -6.7990   17.3440 N.3   119  ILE119     -0.1245
    153  CA         2.7200   -6.5080   18.7140 C.3   119  ILE119      0.1561
    154  C          4.1520   -5.9370   18.6330 C.2   119  ILE119      0.2260
    155  O          4.9880   -6.5640   17.9890 O.2   119  ILE119     -0.2867
    156  CB         2.7020   -7.7800   19.5760 C.3   119  ILE119      0.0252
    157  CG1        1.3050   -8.3390   19.8330 C.3   119  ILE119      0.0019
    158  CG2        3.4540   -7.5450   20.9090 C.3   119  ILE119      0.0019
    159  CD1        0.4120   -7.4580   20.7020 C.3   119  ILE119      0.0001
    160  N          6.9640   -7.5560   23.3700 N.3   122  GLY122     -0.1210
    161  CA         6.3330   -8.7240   24.0530 C.3   122  GLY122      0.1956
    162  C          6.0100   -8.3250   25.5100 C.2   122  GLY122      0.2613
    163  O          6.6910   -7.4800   26.0580 O.2   122  GLY122     -0.2717
    164  N          5.0650   -9.0510   26.1040 N.am  123  SER123     -0.1938
    165  CA         4.5990   -8.7820   27.4480 C.3   123  SER123      0.2055
    166  C          5.6160   -9.1870   28.5060 C.2   123  SER123      0.2643
    167  O          5.6310   -8.4710   29.5230 O.2   123  SER123     -0.2714
    168  CB         3.2480   -9.4740   27.7480 C.3   123  SER123      0.2130
    169  OG         3.4340  -10.8570   27.8950 O.3   123  SER123     -0.2179
    170  N          6.5140  -10.1770   28.2330 N.am  124  VAL124     -0.1963
    171  CA         7.4680  -10.4690   29.3250 C.3   124  VAL124      0.1727
    172  C          8.4910   -9.3460   29.4270 C.2   124  VAL124      0.2616
    173  O          8.7800   -8.7900   30.4720 O.2   124  VAL124     -0.2715
    174  CB         8.1400  -11.8360   29.0750 C.3   124  VAL124      0.0290
    175  CG1        9.1700  -12.1300   30.1760 C.3   124  VAL124      0.0023
    176  CG2        7.1250  -12.9720   28.9830 C.3   124  VAL124      0.0023
    177  N          8.9860   -8.8910   28.2350 N.am  125  THR125     -0.1951
    178  CA         9.9420   -7.7820   28.2500 C.3   125  THR125      0.1897
    179  C          9.3360   -6.4940   28.7800 C.2   125  THR125      0.2313
    180  O          9.9840   -5.8220   29.5820 O.2   125  THR125     -0.2863
    181  CB        10.5370   -7.5000   26.8440 C.3   125  THR125      0.1794
    182  OG1       11.0330   -8.7940   26.4410 O.3   125  THR125     -0.2208
    183  CG2       11.6050   -6.4400   26.9300 C.3   125  THR125      0.0378
@<TRIPOS>BOND
     1   150   149    1
     2   143   141   am
     3   139   138    2
     4   146   145    1
     5   146   147    2
     6   145   148    1
     7   145   144    1
     8   149   148    1
     9   149   151    1
    10   141   142    2
    11   141   140    1
    12   138   144   am
    13   138   137    1
    14   152   153    1
    15   140   137    1
    16   132   131    2
    17   137   136    1
    18   155   154    2
    19   154   153    1
    20   153   156    1
    21   131   136   am
    22   131   130    1
    23   115   114   ar
    24   115   113   ar
    25   114   112   ar
    26   123   122    2
    27   113   111   ar
    28   112   111   ar
    29   111   110    1
    30   156   157    1
    31   156   158    1
    32   157   159    1
    33   119   118    2
    34   110   107    1
    35   105   104    1
    36   130   129    1
    37   130   133    1
    38   122   129   am
    39   122   121    1
    40   135   133    1
    41   128   127    1
    42   121   120    1
    43   121   124    1
    44   133   134    1
    45   118   120   am
    46   118   117    1
    47    35    36    1
    48   126   127    1
    49   126   125    1
    50   104   101    1
    51   107   108    1
    52   107   106    1
    53   116   108   am
    54   116   117    1
    55   108   109    2
    56   106   102   am
    57    37    36    1
    58    37    38    2
    59   124   125    1
    60    36    39    1
    61   102   101    1
    62   102   103    2
    63   100   101    1
    64   100    98   am
    65    97    98    1
    66    97    96    1
    67   160   161    1
    68    98    99    2
    69    33    32   ar
    70   161   162    1
    71    30    29    2
    72    34    32   ar
    73    12    11    1
    74    32    31    1
    75    96    90   am
    76    29    28    1
    77    91    90    2
    78    90    89    1
    79    25    24    1
    80    11     9   ar
    81    11    10   ar
    82   162   163    2
    83   162   164   am
    84    31    28    1
    85     9     7   ar
    86    28    27    1
    87   164   165    1
    88    27    22   am
    89    10     8   ar
    90   182   181    1
    91    89    88    1
    92    89    92    1
    93    24    21    1
    94    24    26    1
    95   181   183    1
    96   181   178    1
    97     7     6   ar
    98    22    21    1
    99    22    23    2
   100    21    20    1
   101   165   168    1
   102   165   166    1
   103     8     6   ar
   104    92    93    1
   105   168   169    1
   106    93    94    1
   107     6     5    1
   108    16    15    2
   109   170   166   am
   110   170   171    1
   111   177   178    1
   112   177   172   am
   113   178   179    1
   114    57    55   ar
   115    57    56   ar
   116   166   167    2
   117    20    15   am
   118   179   180    2
   119    15    14    1
   120    55    53   ar
   121   176   174    1
   122   174   171    1
   123   174   175    1
   124    95    94    1
   125    56    54   ar
   126     5     2    1
   127   171   172    1
   128   172   173    2
   129    53    54   ar
   130    53    52    1
   131     2     3    1
   132     2     1    1
   133     3    13   am
   134     3     4    2
   135    19    13    1
   136    19    18    1
   137    13    14    1
   138    14    17    1
   139    52    49    1
   140    18    17    1
   141    72    70   ar
   142    43    42    2
   143    69    70    1
   144    69    66    1
   145    61    60    2
   146    49    48    1
   147    49    50    1
   148    70    71   ar
   149    78    77    1
   150    78    79    1
   151    77    74    1
   152    42    48   am
   153    42    41    1
   154    65    66    1
   155    87    85    1
   156    58    50   am
   157    58    59    1
   158    60    59    1
   159    40    41    1
   160    66    67    1
   161    50    51    2
   162    68    67    2
   163    41    44    1
   164    79    73    1
   165    59    62    1
   166    62    64    1
   167    62    63    1
   168    85    84    1
   169    74    75    1
   170    74    73    1
   171    44    45    1
   172    86    84    1
   173    75    76    2
   174    45    47    1
   175    45    46    1
   176    84    81    1
   177    81    80    1
   178    81    82    1
   179    82    83    2
