@<TRIPOS>MOLECULE
tmp/1mjjA00.pdb
 122 121 0 0 0
SMALL
GASTEIGER

@<TRIPOS>ATOM
      1  N          0.9500   56.7850   60.3310 N.3    31  HIS31      -0.1241
      2  CA         1.0350   55.9700   61.5410 C.3    31  HIS31       0.1621
      3  C          1.7120   56.6940   62.7000 C.2    31  HIS31       0.2264
      4  O          2.4100   57.6870   62.5010 O.2    31  HIS31      -0.2867
      5  CB         1.8030   54.6850   61.2430 C.3    31  HIS31       0.0745
      6  CG         1.6930   53.6550   62.3230 C.ar   31  HIS31       0.0817
      7  ND1        2.5910   53.5720   63.3660 N.ar   31  HIS31      -0.2268
      8  CD2        0.7820   52.6720   62.5260 C.ar   31  HIS31       0.1154
      9  CE1        2.2400   52.5780   64.1610 C.ar   31  HIS31       0.1986
     10  NE2        1.1470   52.0170   63.6740 N.ar   31  HIS31      -0.2212
     11  N          4.1350   55.7480   64.0340 N.3    33  ASN33      -0.1240
     12  CA         5.5700   55.5750   63.8690 C.3    33  ASN33       0.1653
     13  C          6.1610   56.5530   62.8730 C.2    33  ASN33       0.2266
     14  O          7.3450   56.4660   62.5660 O.2    33  ASN33      -0.2867
     15  CB         5.9500   54.1330   63.4750 C.3    33  ASN33       0.1155
     16  CG         5.4370   53.7260   62.1050 C.2    33  ASN33       0.2627
     17  OD1        5.1330   54.5720   61.2560 O.2    33  ASN33      -0.2716
     18  ND2        5.3530   52.4080   61.8770 N.am   33  ASN33      -0.0877
     19  N          1.5600   54.9220   55.2410 N.3    37  TYR37      -0.1241
     20  CA         1.4370   53.6880   54.4810 C.3    37  TYR37       0.1605
     21  C          0.6160   53.7500   53.2070 C.2    37  TYR37       0.2264
     22  O         -0.4730   53.2040   53.1290 O.2    37  TYR37      -0.2867
     23  CB         0.9400   52.5790   55.4320 C.3    37  TYR37       0.0534
     24  CG         2.0000   52.2480   56.4650 C.ar   37  TYR37      -0.0201
     25  CD1        2.1510   53.0290   57.6080 C.ar   37  TYR37      -0.0009
     26  CD2        2.9070   51.2060   56.2530 C.ar   37  TYR37      -0.0009
     27  CE1        3.1850   52.7880   58.5110 C.ar   37  TYR37       0.0417
     28  CE2        3.9390   50.9510   57.1470 C.ar   37  TYR37       0.0417
     29  CZ         4.0740   51.7500   58.2720 C.ar   37  TYR37       0.1957
     30  OH         5.1080   51.5390   59.1330 O.3    37  TYR37      -0.2866
     31  N          1.0790   53.4290   48.8050 N.3    39  TYR39      -0.1241
     32  CA         1.8600   53.0510   47.6210 C.3    39  TYR39       0.1605
     33  C          1.1990   53.6240   46.3670 C.2    39  TYR39       0.2264
     34  O         -0.0130   53.8850   46.3560 O.2    39  TYR39      -0.2867
     35  CB         1.8640   51.5270   47.3890 C.3    39  TYR39       0.0534
     36  CG         2.7680   50.6670   48.2390 C.ar   39  TYR39      -0.0201
     37  CD1        2.2250   49.7890   49.2020 C.ar   39  TYR39      -0.0009
     38  CD2        4.1500   50.6790   48.0590 C.ar   39  TYR39      -0.0009
     39  CE1        3.0400   48.9480   49.9510 C.ar   39  TYR39       0.0417
     40  CE2        4.9760   49.8340   48.8070 C.ar   39  TYR39       0.0417
     41  CZ         4.4040   48.9720   49.7510 C.ar   39  TYR39       0.1957
     42  OH         5.2010   48.1410   50.4860 O.3    39  TYR39      -0.2866
     43  N          1.3990   52.6490   42.1710 N.3    41  PHE41      -0.1241
     44  CA         1.9170   51.7310   41.1640 C.3    41  PHE41       0.1605
     45  C          1.3990   52.1630   39.7830 C.2    41  PHE41       0.2264
     46  O          0.3490   52.8050   39.6660 O.2    41  PHE41      -0.2867
     47  CB         1.3940   50.2920   41.3520 C.3    41  PHE41       0.0534
     48  CG         1.5920   49.7180   42.7170 C.ar   41  PHE41      -0.0203
     49  CD1        0.6720   49.9590   43.7260 C.ar   41  PHE41      -0.0042
     50  CD2        2.6780   48.8920   42.9820 C.ar   41  PHE41      -0.0042
     51  CE1        0.8250   49.3870   44.9790 C.ar   41  PHE41      -0.0003
     52  CE2        2.8380   48.3110   44.2360 C.ar   41  PHE41      -0.0003
     53  CZ         1.9080   48.5610   45.2350 C.ar   41  PHE41      -0.0000
     54  N         -2.6090   52.3610   46.8910 N.3    94  LEU94      -0.1245
     55  CA        -2.8960   51.2520   47.7810 C.3    94  LEU94       0.1561
     56  C         -2.4850   51.6130   49.2070 C.2    94  LEU94       0.2260
     57  O         -1.3860   52.1400   49.4330 O.2    94  LEU94      -0.2867
     58  CB        -2.1150   50.0050   47.3230 C.3    94  LEU94       0.0270
     59  CG        -1.9610   48.8550   48.3280 C.3    94  LEU94       0.0019
     60  CD1       -3.3000   48.1320   48.4990 C.3    94  LEU94       0.0001
     61  CD2       -0.8920   47.8800   47.8240 C.3    94  LEU94       0.0001
     62  N         -1.6860   50.2790   53.0620 N.3    96  HIS96      -0.1226
     63  CA        -1.3560   49.0420   53.7530 C.3    96  HIS96       0.1752
     64  C         -1.1890   49.3150   55.2580 C.2    96  HIS96       0.2596
     65  O         -0.3990   48.6790   55.9680 O.2    96  HIS96      -0.2718
     66  CB        -0.1120   48.3540   53.1500 C.3    96  HIS96       0.0759
     67  CG         1.1370   49.1850   53.1480 C.ar   96  HIS96       0.0818
     68  ND1        2.3470   48.6920   53.5900 N.ar   96  HIS96      -0.2268
     69  CD2        1.4040   50.4040   52.6140 C.ar   96  HIS96       0.1154
     70  CE1        3.3050   49.5640   53.3220 C.ar   96  HIS96       0.1986
     71  NE2        2.7600   50.6120   52.7260 N.ar   96  HIS96      -0.2212
     72  N         -1.9780   50.2730   55.7220 N.am   97  LEU97      -0.1966
     73  CA        -1.9980   50.6610   57.1160 C.3    97  LEU97       0.1728
     74  C         -2.7970   49.6420   57.9200 C.2    97  LEU97       0.2616
     75  O         -2.4000   49.2340   59.0230 O.2    97  LEU97      -0.2715
     76  CB        -2.6800   52.0190   57.2820 C.3    97  LEU97       0.0311
     77  CG        -2.7320   52.4210   58.7560 C.3    97  LEU97       0.0022
     78  CD1       -1.3710   53.0230   59.1240 C.3    97  LEU97       0.0001
     79  CD2       -3.8520   53.3960   59.0270 C.3    97  LEU97       0.0001
     80  N         -3.9260   49.2420   57.3540 N.am   98  GLU98      -0.1963
     81  CA        -4.8220   48.3180   58.0220 C.3    98  GLU98       0.1733
     82  C         -5.3710   47.2500   57.1090 C.2    98  GLU98       0.2616
     83  O         -5.4990   47.4540   55.8920 O.2    98  GLU98      -0.2715
     84  CB        -6.0150   49.0930   58.5960 C.3    98  GLU98       0.0429
     85  CG        -5.6640   50.1040   59.6720 C.3    98  GLU98       0.1163
     86  CD        -6.8950   50.8380   60.2170 C.2    98  GLU98       0.3649
     87  OE1       -8.0500   50.4710   59.8800 O.co2  98  GLU98      -0.2457
     88  OE2       -6.6980   51.7890   60.9900 O.co2  98  GLU98      -0.2457
     89  N         -5.6910   46.1010   57.6930 N.am   99  TYR99      -0.1974
     90  CA        -6.3130   45.0350   56.9240 C.3    99  TYR99       0.1639
     91  C         -7.8040   45.3630   56.9540 C.2    99  TYR99       0.2290
     92  O         -8.3130   45.8610   57.9720 O.2    99  TYR99      -0.2864
     93  CB        -6.0750   43.6830   57.5810 C.3    99  TYR99       0.0560
     94  CG        -4.6740   43.1470   57.4070 C.ar   99  TYR99      -0.0198
     95  CD1       -4.2580   42.6110   56.1900 C.ar   99  TYR99      -0.0009
     96  CD2       -3.7670   43.1810   58.4540 C.ar   99  TYR99      -0.0009
     97  CE1       -2.9670   42.1210   56.0240 C.ar   99  TYR99       0.0417
     98  CE2       -2.4740   42.7020   58.3010 C.ar   99  TYR99       0.0417
     99  CZ        -2.0740   42.1770   57.0910 C.ar   99  TYR99       0.1957
    100  OH        -0.7760   41.7510   56.9170 O.3    99  TYR99      -0.2866
    101  N         -6.1870   45.2260   53.0570 N.3   101  PHE101     -0.1241
    102  CA        -5.4960   46.1820   52.2150 C.3   101  PHE101      0.1605
    103  C         -6.5080   46.6200   51.1340 C.2   101  PHE101      0.2264
    104  O         -7.3330   45.8250   50.6820 O.2   101  PHE101     -0.2867
    105  CB        -4.2230   45.5510   51.6300 C.3   101  PHE101      0.0534
    106  CG        -3.1930   45.1630   52.6910 C.ar  101  PHE101     -0.0203
    107  CD1       -3.0430   45.9360   53.8420 C.ar  101  PHE101     -0.0042
    108  CD2       -2.3590   44.0560   52.5170 C.ar  101  PHE101     -0.0042
    109  CE1       -2.0750   45.6200   54.8070 C.ar  101  PHE101     -0.0003
    110  CE2       -1.3800   43.7240   53.4770 C.ar  101  PHE101     -0.0003
    111  CZ        -1.2390   44.5140   54.6260 C.ar  101  PHE101     -0.0000
    112  N         -7.1800   49.0460   47.4890 N.3   103  PHE103     -0.1241
    113  CA        -6.6800   49.7870   46.3410 C.3   103  PHE103      0.1605
    114  C         -7.6670   50.8720   45.9070 C.2   103  PHE103      0.2264
    115  O         -8.8730   50.7810   46.1520 O.2   103  PHE103     -0.2867
    116  CB        -6.5190   48.8710   45.1200 C.3   103  PHE103      0.0534
    117  CG        -5.3980   47.8790   45.2040 C.ar  103  PHE103     -0.0203
    118  CD1       -5.6310   46.5830   45.6430 C.ar  103  PHE103     -0.0042
    119  CD2       -4.1260   48.2120   44.7330 C.ar  103  PHE103     -0.0042
    120  CE1       -4.6170   45.6250   45.6080 C.ar  103  PHE103     -0.0003
    121  CE2       -3.1170   47.2750   44.6960 C.ar  103  PHE103     -0.0003
    122  CZ        -3.3560   45.9760   45.1320 C.ar  103  PHE103     -0.0000
@<TRIPOS>BOND
     1    46    45    2
     2    45    44    1
     3    44    47    1
     4    44    43    1
     5    47    48    1
     6    48    50   ar
     7    48    49   ar
     8    50    52   ar
     9    49    51   ar
    10    52    53   ar
    11   121   119   ar
    12   121   122   ar
    13   119   117   ar
    14    51    53   ar
    15   116   117    1
    16   116   113    1
    17   122   120   ar
    18   117   118   ar
    19   120   118   ar
    20   114   115    2
    21   114   113    1
    22   113   112    1
    23    34    33    2
    24    33    32    1
    25    54    55    1
    26    58    55    1
    27    58    59    1
    28    35    32    1
    29    35    36    1
    30    32    31    1
    31    55    56    1
    32    61    59    1
    33    38    36   ar
    34    38    40   ar
    35    36    37   ar
    36    59    60    1
    37    40    41   ar
    38    37    39   ar
    39    56    57    2
    40    41    39   ar
    41    41    42    1
    42   104   103    2
    43   103   102    1
    44   105   102    1
    45   105   106    1
    46   102   101    1
    47   108   106   ar
    48   108   110   ar
    49    69    71   ar
    50    69    67   ar
    51   106   107   ar
    52    71    70   ar
    53    62    63    1
    54    22    21    2
    55    67    66    1
    56    67    68   ar
    57    66    63    1
    58    21    20    1
    59    70    68   ar
    60   110   111   ar
    61    63    64    1
    62   107   109   ar
    63    20    19    1
    64    20    23    1
    65   111   109   ar
    66    64    72   am
    67    64    65    2
    68    23    24    1
    69    72    73    1
    70    83    82    2
    71    97    95   ar
    72    97    99   ar
    73    95    94   ar
    74    26    24   ar
    75    26    28   ar
    76    24    25   ar
    77   100    99    1
    78    90    91    1
    79    90    93    1
    80    90    89    1
    81    91    92    2
    82    99    98   ar
    83    82    89   am
    84    82    81    1
    85    73    76    1
    86    73    74    1
    87    28    29   ar
    88    76    77    1
    89    80    74   am
    90    80    81    1
    91    94    93    1
    92    94    96   ar
    93    25    27   ar
    94    74    75    2
    95    81    84    1
    96    29    27   ar
    97    29    30    1
    98    98    96   ar
    99    84    85    1
   100    77    79    1
   101    77    78    1
   102    85    86    1
   103    87    86   ar
   104    86    88   ar
   105     1     2    1
   106     5     2    1
   107     5     6    1
   108    17    16    2
   109     2     3    1
   110    18    16   am
   111    16    15    1
   112     6     8   ar
   113     6     7   ar
   114     4     3    2
   115     8    10   ar
   116    14    13    2
   117    13    12    1
   118     7     9   ar
   119    15    12    1
   120    10     9   ar
   121    12    11    1
