@<TRIPOS>MOLECULE
tmp/1mjjD00.pdb
 118 118 0 0 0
SMALL
GASTEIGER

@<TRIPOS>ATOM
      1  N         30.7050   37.9400    3.2250 N.3    32  TRP32      -0.1241
      2  CA        32.0710   37.6350    3.6250 C.3    32  TRP32       0.1605
      3  C         32.2080   37.4430    5.1280 C.2    32  TRP32       0.2264
      4  O         31.5660   38.1410    5.9260 O.2    32  TRP32      -0.2867
      5  CB        33.0160   38.7680    3.2310 C.3    32  TRP32       0.0550
      6  CG        33.1980   38.9030    1.7760 C.ar   32  TRP32       0.0003
      7  CD1       32.4180   39.6110    0.9150 C.ar   32  TRP32       0.0946
      8  CD2       34.1960   38.2570    0.9890 C.ar   32  TRP32       0.0152
      9  NE1       32.8680   39.4420   -0.3740 N.ar   32  TRP32      -0.2442
     10  CE2       33.9630   38.6160   -0.3550 C.ar   32  TRP32       0.0810
     11  CE3       35.2750   37.4050    1.2920 C.ar   32  TRP32       0.0012
     12  CZ2       34.7700   38.1540   -1.4100 C.ar   32  TRP32       0.0191
     13  CZ3       36.0690   36.9460    0.2590 C.ar   32  TRP32       0.0001
     14  CH2       35.8140   37.3230   -1.0880 C.ar   32  TRP32       0.0015
     15  N         35.1350   37.5540    7.9930 N.3    34  ASN34      -0.1240
     16  CA        36.5100   38.0440    8.2030 C.3    34  ASN34       0.1653
     17  C         37.0640   37.6050    9.5610 C.2    34  ASN34       0.2266
     18  O         36.3030   37.4060   10.5160 O.2    34  ASN34      -0.2867
     19  CB        36.5640   39.5830    8.1910 C.3    34  ASN34       0.1155
     20  CG        36.2250   40.1940    6.8460 C.2    34  ASN34       0.2627
     21  OD1       37.1120   40.6790    6.1390 O.2    34  ASN34      -0.2716
     22  ND2       34.9280   40.1930    6.4880 N.am   34  ASN34      -0.0877
     23  N         39.8690   38.6530   12.5920 N.3    36  VAL36      -0.1245
     24  CA        40.7000   39.7170   13.1420 C.3    36  VAL36       0.1561
     25  C         41.4060   39.2550   14.4280 C.2    36  VAL36       0.2260
     26  O         40.8110   38.5720   15.2690 O.2    36  VAL36      -0.2867
     27  CB        39.8250   40.9800   13.4240 C.3    36  VAL36       0.0252
     28  CG1       40.5940   42.0270   14.2390 C.3    36  VAL36       0.0019
     29  CG2       39.3900   41.6070   12.0940 C.3    36  VAL36       0.0019
     30  N         43.7910   42.6280   10.8710 N.3    46  TRP46      -0.1241
     31  CA        43.0110   41.8040    9.9590 C.3    46  TRP46       0.1605
     32  C         43.8090   40.6220    9.4420 C.2    46  TRP46       0.2264
     33  O         44.9070   40.7930    8.9040 O.2    46  TRP46      -0.2867
     34  CB        42.5510   42.6400    8.7780 C.3    46  TRP46       0.0550
     35  CG        41.7360   41.8850    7.8060 C.ar   46  TRP46       0.0003
     36  CD1       40.4340   41.4980    7.9490 C.ar   46  TRP46       0.0946
     37  CD2       42.1570   41.4240    6.5230 C.ar   46  TRP46       0.0152
     38  NE1       40.0100   40.8260    6.8200 N.ar   46  TRP46      -0.2442
     39  CE2       41.0520   40.7640    5.9310 C.ar   46  TRP46       0.0810
     40  CE3       43.3610   41.5040    5.8100 C.ar   46  TRP46       0.0012
     41  CZ2       41.1160   40.1840    4.6560 C.ar   46  TRP46       0.0191
     42  CZ3       43.4250   40.9210    4.5260 C.ar   46  TRP46       0.0001
     43  CH2       42.3090   40.2720    3.9720 C.ar   46  TRP46       0.0015
     44  N         39.8480   36.7820    4.8990 N.3    49  ASN49      -0.1240
     45  CA        38.4340   36.5220    4.8240 C.3    49  ASN49       0.1653
     46  C         38.0920   35.4390    3.8010 C.2    49  ASN49       0.2266
     47  O         38.9550   34.9710    3.0470 O.2    49  ASN49      -0.2867
     48  CB        37.6650   37.8250    4.5630 C.3    49  ASN49       0.1155
     49  CG        37.8910   38.4010    3.1610 C.2    49  ASN49       0.2627
     50  OD1       38.6510   37.8660    2.3400 O.2    49  ASN49      -0.2716
     51  ND2       37.2180   39.5080    2.8900 N.am   49  ASN49      -0.0877
     52  N         40.9060   35.6180    0.8320 N.3    58  HIS58      -0.1241
     53  CA        41.8570   36.7240    0.7750 C.3    58  HIS58       0.1621
     54  C         42.6220   36.5650    2.0950 C.2    58  HIS58       0.2264
     55  O         42.0030   36.4290    3.1550 O.2    58  HIS58      -0.2867
     56  CB        41.1700   38.1040    0.8000 C.3    58  HIS58       0.0745
     57  CG        40.5300   38.5000   -0.4910 C.ar   58  HIS58       0.0817
     58  ND1       39.1610   38.5510   -0.6580 N.ar   58  HIS58      -0.2268
     59  CD2       41.0730   38.8650   -1.6800 C.ar   58  HIS58       0.1154
     60  CE1       38.8880   38.9340   -1.8950 C.ar   58  HIS58       0.1986
     61  NE2       40.0300   39.1290   -2.5370 N.ar   58  HIS58      -0.2212
     62  N         34.0940   38.1880   11.9130 N.3    96  ALA96      -0.1231
     63  CA        33.1590   39.2870   11.6690 C.3    96  ALA96       0.1694
     64  C         32.6750   39.2210   10.2220 C.2    96  ALA96       0.2592
     65  O         33.4660   39.0220    9.2910 O.2    96  ALA96      -0.2718
     66  CB        33.8430   40.6570   11.9330 C.3    96  ALA96       0.0304
     67  N         31.3750   39.3760   10.0220 N.am   97  ASN97      -0.1960
     68  CA        30.8790   39.3280    8.6680 C.3    97  ASN97       0.1819
     69  C         30.5640   40.7680    8.2670 C.2    97  ASN97       0.2621
     70  O         30.7990   41.7060    9.0330 O.2    97  ASN97      -0.2715
     71  CB        29.6460   38.4110    8.5820 C.3    97  ASN97       0.1195
     72  CG        28.4910   38.8780    9.4670 C.2    97  ASN97       0.2630
     73  OD1       27.6230   38.0870    9.8450 O.2    97  ASN97      -0.2716
     74  ND2       28.4700   40.1560    9.7850 N.am   97  ASN97      -0.0877
     75  N         30.0590   40.9380    7.0590 N.am   98  LYS98      -0.1977
     76  CA        29.7180   42.2440    6.5750 C.3    98  LYS98       0.1596
     77  C         28.4710   42.1150    5.7160 C.2    98  LYS98       0.2287
     78  O         28.4960   41.5140    4.6420 O.2    98  LYS98      -0.2864
     79  CB        30.8900   42.8500    5.7880 C.3    98  LYS98       0.0298
     80  CG        30.5150   44.0650    4.8910 C.3    98  LYS98       0.0038
     81  CD        31.6460   45.1040    4.8690 C.3    98  LYS98       0.0206
     82  CE        31.8760   45.8030    3.5360 C.3    98  LYS98       0.1093
     83  NZ        30.7090   46.0680    2.6360 N.3    98  LYS98      -0.1314
     84  N         26.8400   47.5260    4.3290 N.3   101  TRP101     -0.1241
     85  CA        27.8620   48.3550    4.9510 C.3   101  TRP101      0.1605
     86  C         28.1420   47.9830    6.4120 C.2   101  TRP101      0.2264
     87  O         29.1250   48.4510    6.9910 O.2   101  TRP101     -0.2867
     88  CB        27.4330   49.8260    4.9310 C.3   101  TRP101      0.0550
     89  CG        27.6290   50.5190    3.6150 C.ar  101  TRP101      0.0003
     90  CD1       26.6800   50.7760    2.6700 C.ar  101  TRP101      0.0946
     91  CD2       28.8710   50.9980    3.0870 C.ar  101  TRP101      0.0152
     92  NE1       27.2560   51.3840    1.5800 N.ar  101  TRP101     -0.2442
     93  CE2       28.6010   51.5300    1.8080 C.ar  101  TRP101      0.0810
     94  CE3       30.1870   51.0210    3.5680 C.ar  101  TRP101      0.0012
     95  CZ2       29.5990   52.0790    1.0030 C.ar  101  TRP101      0.0191
     96  CZ3       31.1840   51.5710    2.7620 C.ar  101  TRP101      0.0001
     97  CH2       30.8820   52.0890    1.4990 C.ar  101  TRP101      0.0015
     98  N         29.2040   45.6250    9.5610 N.3   103  PRO103     -0.2116
     99  CA        29.8230   44.3780   10.0090 C.3   103  PRO103      0.1372
    100  C         29.2500   43.9300   11.3560 C.2   103  PRO103      0.2244
    101  O         28.8370   44.7470   12.1760 O.2   103  PRO103     -0.2868
    102  CB        31.3050   44.7390   10.0830 C.3   103  PRO103      0.0268
    103  CG        31.2790   46.1730   10.4580 C.3   103  PRO103      0.0207
    104  CD        30.1470   46.7520    9.6510 C.3   103  PRO103      0.0892
    105  N         30.0960   41.2660   14.6820 N.3   105  TRP105     -0.1241
    106  CA        31.2090   40.5270   15.2870 C.3   105  TRP105      0.1605
    107  C         30.8560   39.3950   16.2400 C.2   105  TRP105      0.2264
    108  O         29.8300   39.4320   16.9360 O.2   105  TRP105     -0.2867
    109  CB        32.0930   41.4870   16.0790 C.3   105  TRP105      0.0550
    110  CG        32.6540   42.6370   15.3150 C.ar  105  TRP105      0.0003
    111  CD1       31.9570   43.6840   14.7660 C.ar  105  TRP105      0.0946
    112  CD2       34.0410   42.9200   15.0910 C.ar  105  TRP105      0.0152
    113  NE1       32.8310   44.6040   14.2260 N.ar  105  TRP105     -0.2442
    114  CE2       34.1140   44.1640   14.4130 C.ar  105  TRP105      0.0810
    115  CE3       35.2340   42.2470   15.4030 C.ar  105  TRP105      0.0012
    116  CZ2       35.3300   44.7500   14.0440 C.ar  105  TRP105      0.0191
    117  CZ3       36.4470   42.8330   15.0350 C.ar  105  TRP105      0.0001
    118  CH2       36.4820   44.0750   14.3610 C.ar  105  TRP105      0.0015
@<TRIPOS>BOND
     1    61    60   ar
     2    61    59   ar
     3    60    58   ar
     4    59    57   ar
     5    12    14   ar
     6    12    10   ar
     7    14    13   ar
     8    58    57   ar
     9    57    56    1
    10     9    10   ar
    11     9     7   ar
    12    10     8   ar
    13    13    11   ar
    14    53    56    1
    15    53    52    1
    16    53    54    1
    17     7     6   ar
    18     8    11   ar
    19     8     6   ar
    20    95    97   ar
    21    95    93   ar
    22    97    96   ar
    23    92    93   ar
    24    92    90   ar
    25     6     5    1
    26    93    91   ar
    27    54    55    2
    28    50    49    2
    29    83    82    1
    30    90    89   ar
    31    96    94   ar
    32    51    49   am
    33    47    46    2
    34    91    94   ar
    35    91    89   ar
    36    49    48    1
    37     1     2    1
    38     5     2    1
    39    82    81    1
    40    89    88    1
    41     2     3    1
    42    46    45    1
    43    43    42   ar
    44    43    41   ar
    45    84    85    1
    46    42    40   ar
    47    48    45    1
    48    78    77    2
    49    41    39   ar
    50    45    44    1
    51    81    80    1
    52    80    79    1
    53    88    85    1
    54    85    86    1
    55     3     4    2
    56    77    76    1
    57    79    76    1
    58    40    37   ar
    59    39    37   ar
    60    39    38   ar
    61    21    20    2
    62    86    87    2
    63    22    20   am
    64    37    35   ar
    65    76    75    1
    66    38    36   ar
    67    20    19    1
    68    75    69   am
    69    35    36   ar
    70    35    34    1
    71    15    16    1
    72    19    16    1
    73    16    17    1
    74    69    68    1
    75    69    70    2
    76    71    68    1
    77    71    72    1
    78    68    67    1
    79    34    31    1
    80    33    32    2
    81    65    64    2
    82    32    31    1
    83    72    74   am
    84    72    73    2
    85    98   104    1
    86    98    99    1
    87    17    18    2
    88   104   103    1
    89    31    30    1
    90    99   102    1
    91    99   100    1
    92    67    64   am
    93   102   103    1
    94    64    63    1
    95   100   101    2
    96    63    62    1
    97    63    66    1
    98    29    27    1
    99    23    24    1
   100    24    27    1
   101    24    25    1
   102    27    28    1
   103   116   118   ar
   104   116   114   ar
   105   113   114   ar
   106   113   111   ar
   107   118   117   ar
   108   114   112   ar
   109    25    26    2
   110   105   106    1
   111   111   110   ar
   112   117   115   ar
   113   112   110   ar
   114   112   115   ar
   115   106   109    1
   116   106   107    1
   117   110   109    1
   118   107   108    2
