@<TRIPOS>MOLECULE
tmp/1mjtB02.pdb
 222 214 0 0 0
SMALL
GASTEIGER

@<TRIPOS>ATOM
      1  N         11.6570  115.8370   40.3190 N.3    57  TRP57      -0.1241
      2  CA        12.0410  115.2040   39.0590 C.3    57  TRP57       0.1605
      3  C         13.5000  114.7330   39.1530 C.2    57  TRP57       0.2264
      4  O         13.8430  113.6470   38.6970 O.2    57  TRP57      -0.2867
      5  CB        11.8660  116.1900   37.8830 C.3    57  TRP57       0.0550
      6  CG        12.2690  115.6300   36.5010 C.ar   57  TRP57       0.0003
      7  CD1       12.6700  114.3490   36.2110 C.ar   57  TRP57       0.0946
      8  CD2       12.3270  116.3520   35.2500 C.ar   57  TRP57       0.0152
      9  NE1       12.9760  114.2340   34.8730 N.ar   57  TRP57      -0.2442
     10  CE2       12.7770  115.4450   34.2610 C.ar   57  TRP57       0.0810
     11  CE3       12.0420  117.6760   34.8710 C.ar   57  TRP57       0.0012
     12  CZ2       12.9530  115.8190   32.9190 C.ar   57  TRP57       0.0191
     13  CZ3       12.2150  118.0480   33.5270 C.ar   57  TRP57       0.0001
     14  CH2       12.6680  117.1190   32.5730 C.ar   57  TRP57       0.0015
     15  N         13.8650  111.4510   41.0650 N.3    60  SER60      -0.1217
     16  CA        13.1600  110.2900   40.5000 C.3    60  SER60       0.1889
     17  C         14.0770  109.1740   39.9650 C.2    60  SER60       0.2288
     18  O         14.4580  109.1700   38.7920 O.2    60  SER60      -0.2866
     19  CB        12.2020  110.7530   39.3930 C.3    60  SER60       0.2089
     20  OG        11.1350  111.5120   39.9420 O.3    60  SER60      -0.2183
     21  N         13.6670  106.3270   38.8510 N.3    62  ARG62      -0.1231
     22  CA        13.2480  105.5480   37.6780 C.3    62  ARG62       0.1694
     23  C         13.2720  106.3000   36.3410 C.2    62  ARG62       0.2592
     24  O         12.9710  105.7190   35.2930 O.2    62  ARG62      -0.2718
     25  CB        11.8450  104.9700   37.9160 C.3    62  ARG62       0.0321
     26  CG        11.7570  104.0360   39.1350 C.3    62  ARG62       0.0489
     27  CD        10.3810  103.3770   39.2800 C.3    62  ARG62       0.2205
     28  NE         9.7180  103.7260   40.5360 N.pl3  62  ARG62      -0.0865
     29  CZ         9.1200  104.8920   40.7760 C.cat  62  ARG62       0.5346
     30  NH1        9.0930  105.8330   39.8430 N.pl3  62  ARG62       0.1354
     31  NH2        8.5470  105.1190   41.9540 N.pl3  62  ARG62       0.1354
     32  N         13.6530  107.5790   36.3800 N.am   63  CYS63      -0.1956
     33  CA        13.6940  108.4280   35.1890 C.3    63  CYS63       0.1843
     34  C         15.0580  108.5840   34.5330 C.2    63  CYS63       0.2625
     35  O         15.9850  109.1080   35.1500 O.2    63  CYS63      -0.2714
     36  CB        13.1740  109.8160   35.5310 C.3    63  CYS63       0.0997
     37  SG        13.4340  110.9730   34.1940 S.3    63  CYS63      -0.0797
     38  N         15.1610  108.1780   33.2670 N.am   64  ILE64      -0.1963
     39  CA        16.4220  108.2550   32.5340 C.3    64  ILE64       0.1727
     40  C         16.6450  109.6430   31.9410 C.2    64  ILE64       0.2616
     41  O         17.7680  109.9990   31.5730 O.2    64  ILE64      -0.2715
     42  CB        16.4590  107.2160   31.3760 C.3    64  ILE64       0.0290
     43  CG1       17.8980  106.9900   30.8990 C.3    64  ILE64       0.0022
     44  CG2       15.6150  107.7110   30.2120 C.3    64  ILE64       0.0023
     45  CD1       18.7470  106.1900   31.8640 C.3    64  ILE64       0.0001
     46  N         15.5790  110.4320   31.8640 N.am   65  GLY65      -0.1955
     47  CA        15.6940  111.7580   31.2780 C.3    65  GLY65       0.1869
     48  C         15.9270  112.9310   32.2110 C.2    65  GLY65       0.2309
     49  O         15.6170  114.0560   31.8370 O.2    65  GLY65      -0.2863
     50  N         17.3610  116.9830   32.0330 N.3    68  PHE68      -0.1241
     51  CA        16.5450  118.1690   31.7970 C.3    68  PHE68       0.1605
     52  C         15.7310  118.7280   32.9590 C.2    68  PHE68       0.2264
     53  O         14.9720  119.6770   32.7680 O.2    68  PHE68      -0.2867
     54  CB        15.5960  117.8940   30.6220 C.3    68  PHE68       0.0534
     55  CG        16.2890  117.3910   29.3830 C.ar   68  PHE68      -0.0203
     56  CD1       16.4190  116.0300   29.1460 C.ar   68  PHE68      -0.0042
     57  CD2       16.8610  118.2850   28.4760 C.ar   68  PHE68      -0.0042
     58  CE1       17.1090  115.5680   28.0280 C.ar   68  PHE68      -0.0003
     59  CE2       17.5550  117.8320   27.3550 C.ar   68  PHE68      -0.0003
     60  CZ        17.6820  116.4770   27.1300 C.ar   68  PHE68      -0.0000
     61  N         12.2490  122.2410   33.8930 N.3    72  LEU72      -0.1245
     62  CA        10.8330  121.9600   34.1010 C.3    72  LEU72       0.1561
     63  C          9.9950  123.2360   34.1950 C.2    72  LEU72       0.2260
     64  O         10.3160  124.1430   34.9610 O.2    72  LEU72      -0.2867
     65  CB        10.6420  121.1100   35.3660 C.3    72  LEU72       0.0270
     66  CG         9.2120  120.7290   35.7770 C.3    72  LEU72       0.0019
     67  CD1        8.5440  119.9350   34.6800 C.3    72  LEU72       0.0001
     68  CD2        9.2510  119.9120   37.0480 C.3    72  LEU72       0.0001
     69  N          8.7540  120.1210   28.8150 N.3   105  PRO105     -0.2116
     70  CA         8.3810  119.5130   30.0950 C.3   105  PRO105      0.1372
     71  C          7.5900  120.5060   30.9270 C.2   105  PRO105      0.2244
     72  O          8.0500  121.6180   31.1930 O.2   105  PRO105     -0.2868
     73  CB         9.7270  119.1650   30.7190 C.3   105  PRO105      0.0268
     74  CG        10.6190  120.2450   30.1940 C.3   105  PRO105      0.0207
     75  CD        10.2110  120.3350   28.7420 C.3   105  PRO105      0.0892
     76  N          4.4580  120.8410   34.2870 N.3   107  ILE107     -0.1245
     77  CA         3.7400  120.2180   35.3900 C.3   107  ILE107      0.1561
     78  C          2.7730  121.2410   35.9700 C.2   107  ILE107      0.2260
     79  O          3.1480  122.3860   36.2320 O.2   107  ILE107     -0.2867
     80  CB         4.6460  119.7120   36.5350 C.3   107  ILE107      0.0252
     81  CG1        3.7820  118.8930   37.5150 C.3   107  ILE107      0.0019
     82  CG2        5.3160  120.8840   37.2540 C.3   107  ILE107      0.0019
     83  CD1        4.5000  118.3080   38.7020 C.3   107  ILE107      0.0001
     84  N          1.8800  111.9590   32.8570 N.3   206  ILE206     -0.1245
     85  CA         1.4830  111.1710   34.0180 C.3   206  ILE206      0.1561
     86  C          0.5830  111.9640   34.9550 C.2   206  ILE206      0.2260
     87  O          0.9510  113.0370   35.4290 O.2   206  ILE206     -0.2867
     88  CB         2.7230  110.6760   34.7700 C.3   206  ILE206      0.0252
     89  CG1        3.4670  109.6700   33.8820 C.3   206  ILE206      0.0019
     90  CG2        2.3320  110.0690   36.1100 C.3   206  ILE206      0.0019
     91  CD1        4.7770  109.1850   34.4560 C.3   206  ILE206      0.0001
     92  N          0.1360  110.1440   39.9680 N.3   209  MET209     -0.1245
     93  CA         1.1180  110.1050   41.0410 C.3   209  MET209      0.1570
     94  C          1.0010  111.2730   41.9970 C.2   209  MET209      0.2261
     95  O          0.4400  112.3130   41.6600 O.2   209  MET209     -0.2867
     96  CB         2.5320  110.0430   40.4660 C.3   209  MET209      0.0387
     97  CG         2.8080  108.7400   39.7300 C.3   209  MET209      0.0595
     98  SD         4.4440  108.6780   38.9900 S.3   209  MET209     -0.1393
     99  CE         5.4110  107.9960   40.3490 C.3   209  MET209      0.0692
    100  N          2.3390  115.7370   35.1440 N.3   223  PHE223     -0.1227
    101  CA         3.5860  116.1550   34.5250 C.3   223  PHE223      0.1736
    102  C          3.8450  115.4200   33.2180 C.2   223  PHE223      0.2595
    103  O          3.2750  114.3670   32.9560 O.2   223  PHE223     -0.2718
    104  CB         4.7640  115.9380   35.4750 C.3   223  PHE223      0.0547
    105  CG         4.8920  114.5290   35.9840 C.ar  223  PHE223     -0.0202
    106  CD1        4.1510  114.0980   37.0850 C.ar  223  PHE223     -0.0042
    107  CD2        5.7730  113.6310   35.3770 C.ar  223  PHE223     -0.0042
    108  CE1        4.2880  112.7930   37.5730 C.ar  223  PHE223     -0.0003
    109  CE2        5.9160  112.3250   35.8590 C.ar  223  PHE223     -0.0003
    110  CZ         5.1720  111.9080   36.9580 C.ar  223  PHE223     -0.0000
    111  N          4.7140  115.9860   32.3940 N.am  224  ASN224     -0.1960
    112  CA         5.0330  115.3810   31.1150 C.3   224  ASN224      0.1819
    113  C          6.4500  115.7100   30.6610 C.2   224  ASN224      0.2622
    114  O          7.0860  116.6400   31.1520 O.2   224  ASN224     -0.2715
    115  CB         4.0700  115.8890   30.0450 C.3   224  ASN224      0.1195
    116  CG         4.3110  117.3510   29.7070 C.2   224  ASN224      0.2630
    117  OD1        3.9280  118.2480   30.4580 O.2   224  ASN224     -0.2716
    118  ND2        4.9740  117.5940   28.5790 N.am  224  ASN224     -0.0877
    119  N          6.9200  114.9160   29.7090 N.am  225  GLY225     -0.1940
    120  CA         8.2190  115.1050   29.0990 C.3   225  GLY225      0.2014
    121  C          7.9170  114.6950   27.6710 C.2   225  GLY225      0.2638
    122  O          6.8310  114.9860   27.1650 O.2   225  GLY225     -0.2714
    123  N          8.8590  114.0320   27.0100 N.am  226  TRP226     -0.1973
    124  CA         8.6260  113.5400   25.6600 C.3   226  TRP226      0.1640
    125  C          9.0090  112.0730   25.7320 C.2   226  TRP226      0.2290
    126  O          9.6340  111.6360   26.7020 O.2   226  TRP226     -0.2864
    127  CB         9.4650  114.3020   24.6170 C.3   226  TRP226      0.0576
    128  CG        10.9150  114.4540   24.9660 C.ar  226  TRP226      0.0006
    129  CD1       11.8860  113.4920   24.9050 C.ar  226  TRP226      0.0946
    130  CD2       11.5500  115.6300   25.4880 C.ar  226  TRP226      0.0152
    131  NE1       13.0860  113.9950   25.3610 N.ar  226  TRP226     -0.2442
    132  CE2       12.9090  115.3030   25.7270 C.ar  226  TRP226      0.0810
    133  CE3       11.1010  116.9290   25.7820 C.ar  226  TRP226      0.0012
    134  CZ2       13.8220  116.2280   26.2480 C.ar  226  TRP226      0.0191
    135  CZ3       12.0120  117.8470   26.3010 C.ar  226  TRP226      0.0001
    136  CH2       13.3580  117.4890   26.5280 C.ar  226  TRP226      0.0015
    137  N         10.6600  108.2680   24.7710 N.3   228  MET228     -0.1245
    138  CA        11.9180  107.6150   24.4570 C.3   228  MET228      0.1570
    139  C         11.4060  106.3980   23.6700 C.2   228  MET228      0.2261
    140  O         10.5560  105.6410   24.1440 O.2   228  MET228     -0.2867
    141  CB        12.6540  107.2140   25.7330 C.3   228  MET228      0.0387
    142  CG        14.0440  106.6680   25.4890 C.3   228  MET228      0.0595
    143  SD        13.9770  104.8990   25.2740 S.3   228  MET228     -0.1393
    144  CE        13.9020  104.3720   27.0100 C.3   228  MET228      0.0692
    145  N          9.6130  102.9310   24.8110 N.3   231  GLU231     -0.1245
    146  CA         8.3760  102.9270   25.5890 C.3   231  GLU231      0.1567
    147  C          7.2080  102.5020   24.6900 C.2   231  GLU231      0.2260
    148  O          6.3030  101.7830   25.1100 O.2   231  GLU231     -0.2867
    149  CB         8.1150  104.3230   26.1630 C.3   231  GLU231      0.0388
    150  CG         9.2010  104.8150   27.0980 C.3   231  GLU231      0.1160
    151  CD         8.8250  106.1100   27.7750 C.2   231  GLU231      0.3649
    152  OE1        7.8170  106.1160   28.5120 O.co2 231  GLU231     -0.2457
    153  OE2        9.5330  107.1220   27.5660 O.co2 231  GLU231     -0.2457
    154  N          7.5530   98.2110   24.7270 N.3   235  ARG235     -0.1245
    155  CA         6.5560   97.9130   25.7380 C.3   235  ARG235      0.1563
    156  C          5.1140   98.0610   25.2700 C.2   235  ARG235      0.2260
    157  O          4.3750   97.0800   25.2020 O.2   235  ARG235     -0.2867
    158  CB         6.8070   98.7760   26.9790 C.3   235  ARG235      0.0307
    159  CG         8.2010   98.5990   27.5850 C.3   235  ARG235      0.0489
    160  CD         8.5000   97.1370   27.9130 C.3   235  ARG235      0.2205
    161  NE         7.6690   96.6010   28.9920 N.pl3 235  ARG235     -0.0865
    162  CZ         7.8070   96.9150   30.2770 C.cat 235  ARG235      0.5346
    163  NH1        8.7480   97.7660   30.6550 N.pl3 235  ARG235      0.1354
    164  NH2        7.0070   96.3770   31.1870 N.pl3 235  ARG235      0.1354
    165  N         13.3550  110.7440   21.5920 N.3   288  VAL288     -0.1245
    166  CA        14.7630  110.4230   21.7520 C.3   288  VAL288      0.1561
    167  C         14.9120  108.9050   21.7360 C.2   288  VAL288      0.2260
    168  O         14.0530  108.1800   22.2450 O.2   288  VAL288     -0.2867
    169  CB        15.3190  111.0190   23.0910 C.3   288  VAL288      0.0252
    170  CG1       14.6400  110.3640   24.2840 C.3   288  VAL288      0.0019
    171  CG2       16.8380  110.8680   23.1550 C.3   288  VAL288      0.0019
    172  N         19.3220  108.7000   24.8810 N.3   293  ALA293     -0.1245
    173  CA        18.7720  109.0600   26.1850 C.3   293  ALA293      0.1562
    174  C         19.7240  108.6570   27.3070 C.2   293  ALA293      0.2260
    175  O         19.8520  109.3590   28.3060 O.2   293  ALA293     -0.2867
    176  CB        17.4160  108.3880   26.3830 C.3   293  ALA293      0.0290
    177  N         22.6740  111.0480   27.4930 N.3   296  GLN296     -0.1245
    178  CA        22.2930  112.2840   28.1560 C.3   296  GLN296      0.1566
    179  C         22.3050  112.0700   29.6640 C.2   296  GLN296      0.2260
    180  O         22.5840  112.9890   30.4340 O.2   296  GLN296     -0.2867
    181  CB        20.9020  112.7130   27.6970 C.3   296  GLN296      0.0367
    182  CG        20.8430  113.1240   26.2340 C.3   296  GLN296      0.0905
    183  CD        19.4220  113.3110   25.7260 C.2   296  GLN296      0.2608
    184  OE1       18.4570  112.8610   26.3520 O.2   296  GLN296     -0.2717
    185  NE2       19.2900  113.9590   24.5720 N.am  296  GLN296     -0.0878
    186  N         14.9490   99.9480   35.7220 N.3   317  TRP317     -0.1241
    187  CA        14.1570  100.9140   34.9650 C.3   317  TRP317      0.1605
    188  C         15.0380  101.7860   34.0870 C.2   317  TRP317      0.2264
    189  O         14.6110  102.2150   33.0100 O.2   317  TRP317     -0.2867
    190  CB        13.3430  101.8280   35.8950 C.3   317  TRP317      0.0550
    191  CG        12.0770  101.2210   36.4770 C.ar  317  TRP317      0.0003
    192  CD1       11.9960  100.1960   37.3740 C.ar  317  TRP317      0.0946
    193  CD2       10.7230  101.6470   36.2320 C.ar  317  TRP317      0.0152
    194  NE1       10.6800   99.9580   37.7070 N.ar  317  TRP317     -0.2442
    195  CE2        9.8790  100.8330   37.0210 C.ar  317  TRP317      0.0810
    196  CE3       10.1450  102.6380   35.4240 C.ar  317  TRP317      0.0012
    197  CZ2        8.4810  100.9800   37.0290 C.ar  317  TRP317      0.0191
    198  CZ3        8.7540  102.7840   35.4310 C.ar  317  TRP317      0.0001
    199  CH2        7.9390  101.9550   36.2310 C.ar  317  TRP317      0.0015
    200  N          8.2060  111.8260   43.6330 N.3   343  PHE343     -0.1241
    201  CA         6.9140  111.4020   43.1140 C.3   343  PHE343      0.1605
    202  C          6.6150  109.9940   43.6130 C.2   343  PHE343      0.2264
    203  O          7.5200  109.1640   43.7350 O.2   343  PHE343     -0.2867
    204  CB         6.9350  111.4050   41.5880 C.3   343  PHE343      0.0534
    205  CG         6.9570  112.7670   40.9890 C.ar  343  PHE343     -0.0203
    206  CD1        5.8290  113.5790   41.0450 C.ar  343  PHE343     -0.0042
    207  CD2        8.0950  113.2360   40.3410 C.ar  343  PHE343     -0.0042
    208  CE1        5.8340  114.8430   40.4610 C.ar  343  PHE343     -0.0003
    209  CE2        8.1150  114.5010   39.7510 C.ar  343  PHE343     -0.0003
    210  CZ         6.9840  115.3090   39.8070 C.ar  343  PHE343     -0.0000
    211  N          3.5480  106.6000   43.6890 N.3   345  TYR345     -0.1241
    212  CA         2.3530  105.9920   43.1280 C.3   345  TYR345      0.1605
    213  C          1.2690  106.2030   44.1600 C.2   345  TYR345      0.2264
    214  O          1.5500  106.2470   45.3600 O.2   345  TYR345     -0.2867
    215  CB         2.5270  104.4840   42.9300 C.3   345  TYR345      0.0534
    216  CG         3.6200  104.0730   41.9780 C.ar  345  TYR345     -0.0201
    217  CD1        3.6480  104.5460   40.6700 C.ar  345  TYR345     -0.0009
    218  CD2        4.5980  103.1610   42.3730 C.ar  345  TYR345     -0.0009
    219  CE1        4.6210  104.1160   39.7740 C.ar  345  TYR345      0.0417
    220  CE2        5.5760  102.7220   41.4880 C.ar  345  TYR345      0.0417
    221  CZ         5.5830  103.2000   40.1880 C.ar  345  TYR345      0.1957
    222  OH         6.5340  102.7420   39.2990 O.3   345  TYR345     -0.2866
@<TRIPOS>BOND
     1   165   166    1
     2   167   166    1
     3   167   168    2
     4   166   169    1
     5   169   171    1
     6   169   170    1
     7   139   140    2
     8   139   138    1
     9   138   137    1
    10   138   141    1
    11   185   183   am
    12   127   128    1
    13   127   124    1
    14   147   148    2
    15   147   146    1
    16   154   155    1
    17   145   146    1
    18   172   173    1
    19   129   128   ar
    20   129   131   ar
    21   128   130   ar
    22   157   156    2
    23   156   155    1
    24   143   142    1
    25   143   144    1
    26   131   132   ar
    27   130   132   ar
    28   130   133   ar
    29   142   141    1
    30   146   149    1
    31   124   125    1
    32   124   123    1
    33   183   182    1
    34   183   184    2
    35   132   134   ar
    36   125   126    2
    37   155   158    1
    38   133   135   ar
    39   149   150    1
    40   173   176    1
    41   173   174    1
    42   182   181    1
    43   134   136   ar
    44   135   136   ar
    45   158   159    1
    46   123   121   am
    47   150   151    1
    48    60    59   ar
    49    60    58   ar
    50   122   121    2
    51   174   175    2
    52    59    57   ar
    53   177   178    1
    54   153   151   ar
    55   159   160    1
    56   121   120    1
    57   181   178    1
    58   151   152   ar
    59   160   161    1
    60    58    56   ar
    61   178   179    1
    62    57    55   ar
    63   118   116   am
    64    75    69    1
    65    75    74    1
    66    69    70    1
    67   161   162    2
    68   120   119    1
    69    56    55   ar
    70    55    54    1
    71   179   180    2
    72   116   115    1
    73   116   117    2
    74   119   113   am
    75   115   112    1
    76    70    73    1
    77    70    71    1
    78    74    73    1
    79    44    42    1
    80   162   163    1
    81   162   164    1
    82    54    51    1
    83   113   112    1
    84   113   114    2
    85    43    42    1
    86    43    45    1
    87    71    72    2
    88   112   111    1
    89    47    46    1
    90    47    48    1
    91    42    39    1
    92    41    40    2
    93    51    50    1
    94    51    52    1
    95    49    48    2
    96    46    40   am
    97    40    39    1
    98   111   102   am
    99    39    38    1
   100    14    12   ar
   101    14    13   ar
   102    53    52    2
   103    84    85    1
   104    12    10   ar
   105   103   102    2
   106   189   188    2
   107   102   101    1
   108    38    34   am
   109    13    11   ar
   110    89    91    1
   111    89    88    1
   112    61    62    1
   113    85    88    1
   114    85    86    1
   115   188   187    1
   116    62    63    1
   117    62    65    1
   118    37    36    1
   119    63    64    2
   120    10     9   ar
   121    10     8   ar
   122    76    77    1
   123   101   100    1
   124   101   104    1
   125    34    35    2
   126    34    33    1
   127    67    66    1
   128    88    90    1
   129    11     8   ar
   130     9     7   ar
   131    86    87    2
   132   187   186    1
   133   187   190    1
   134    33    36    1
   135    33    32    1
   136     8     6   ar
   137    24    23    2
   138    65    66    1
   139   107   109   ar
   140   107   105   ar
   141    77    78    1
   142    77    80    1
   143   196   198   ar
   144   196   193   ar
   145   198   199   ar
   146   104   105    1
   147    66    68    1
   148   109   110   ar
   149   190   191    1
   150    78    79    2
   151   105   106   ar
   152     7     6   ar
   153   199   197   ar
   154   193   191   ar
   155   193   195   ar
   156    23    32   am
   157    23    22    1
   158   191   192   ar
   159     6     5    1
   160    80    82    1
   161    80    81    1
   162   110   108   ar
   163   195   197   ar
   164   195   194   ar
   165   106   108   ar
   166   192   194   ar
   167    81    83    1
   168    22    25    1
   169    22    21    1
   170     5     2    1
   171    25    26    1
   172     4     3    2
   173    18    17    2
   174    98    97    1
   175    98    99    1
   176     2     3    1
   177     2     1    1
   178    26    27    1
   179    27    28    1
   180   222   221    1
   181    19    20    1
   182    19    16    1
   183    97    96    1
   184   209   210   ar
   185   209   207   ar
   186   219   221   ar
   187   219   217   ar
   188   210   208   ar
   189    30    29    1
   190    17    16    1
   191    92    93    1
   192   221   220   ar
   193   207   205   ar
   194   208   206   ar
   195    96    93    1
   196    16    15    1
   197    28    29    2
   198   217   216   ar
   199    29    31    1
   200   205   206   ar
   201   205   204    1
   202    93    94    1
   203   220   218   ar
   204   204   201    1
   205    95    94    2
   206   216   218   ar
   207   216   215    1
   208   215   212    1
   209   201   202    1
   210   201   200    1
   211   212   211    1
   212   212   213    1
   213   202   203    2
   214   213   214    2
