@<TRIPOS>MOLECULE
tmp/1mk0A00.pdb
 140 135 0 0 0
SMALL
GASTEIGER

@<TRIPOS>ATOM
      1  N         37.0290   10.8450   58.5150 N.3     6  TYR6       -0.1241
      2  CA        37.0950   11.8500   59.5640 C.3     6  TYR6        0.1605
      3  C         36.8600   11.2390   60.9360 C.2     6  TYR6        0.2264
      4  O         36.4750   10.0780   61.0580 O.2     6  TYR6       -0.2867
      5  CB        36.0310   12.9210   59.3090 C.3     6  TYR6        0.0534
      6  CG        34.6210   12.3740   59.3710 C.ar    6  TYR6       -0.0201
      7  CD1       33.9770   12.1850   60.5970 C.ar    6  TYR6       -0.0009
      8  CD2       33.9550   11.9860   58.2120 C.ar    6  TYR6       -0.0009
      9  CE1       32.7110   11.6200   60.6640 C.ar    6  TYR6        0.0417
     10  CE2       32.6890   11.4170   58.2670 C.ar    6  TYR6        0.0417
     11  CZ        32.0740   11.2360   59.4960 C.ar    6  TYR6        0.1957
     12  OH        30.8370   10.6560   59.5520 O.3     6  TYR6       -0.2866
     13  N         34.5130    8.9460   67.0620 N.3    17  TYR17      -0.1227
     14  CA        33.6060    8.3020   66.1280 C.3    17  TYR17       0.1736
     15  C         34.3220    8.4790   64.7920 C.2    17  TYR17       0.2595
     16  O         34.6740    9.6000   64.4250 O.2    17  TYR17      -0.2718
     17  CB        32.2680    9.0410   66.0810 C.3    17  TYR17       0.0548
     18  CG        31.2990    8.5040   65.0500 C.ar   17  TYR17      -0.0200
     19  CD1       30.4360    7.4560   65.3590 C.ar   17  TYR17      -0.0009
     20  CD2       31.2440    9.0480   63.7630 C.ar   17  TYR17      -0.0009
     21  CE1       29.5340    6.9600   64.4150 C.ar   17  TYR17       0.0417
     22  CE2       30.3440    8.5550   62.8070 C.ar   17  TYR17       0.0417
     23  CZ        29.4930    7.5130   63.1450 C.ar   17  TYR17       0.1957
     24  OH        28.5840    7.0270   62.2280 O.3    17  TYR17      -0.2866
     25  N         34.5600    7.3820   64.0840 N.am   18  VAL18      -0.1966
     26  CA        35.2230    7.4410   62.7860 C.3    18  VAL18       0.1727
     27  C         34.1850    7.2660   61.6850 C.2    18  VAL18       0.2617
     28  O         33.3380    6.3850   61.7570 O.2    18  VAL18      -0.2715
     29  CB        36.2880    6.3290   62.6480 C.3    18  VAL18       0.0290
     30  CG1       36.8290    6.3010   61.2180 C.3    18  VAL18       0.0023
     31  CG2       37.4240    6.5670   63.6390 C.3    18  VAL18       0.0023
     32  N         34.2460    8.1140   60.6640 N.am   19  GLY19      -0.1940
     33  CA        33.2900    8.0000   59.5770 C.3    19  GLY19       0.2014
     34  C         33.8810    8.4140   58.2450 C.2    19  GLY19       0.2639
     35  O         35.0520    8.7650   58.1630 O.2    19  GLY19      -0.2714
     36  N         33.0660    8.3600   57.1950 N.am   20  SER20      -0.1949
     37  CA        33.5120    8.7450   55.8600 C.3    20  SER20       0.1924
     38  C         32.4970    9.7190   55.2770 C.2    20  SER20       0.2314
     39  O         31.3140    9.6590   55.6050 O.2    20  SER20      -0.2863
     40  CB        33.6380    7.5120   54.9630 C.3    20  SER20       0.2116
     41  OG        32.3990    6.8330   54.8390 O.3    20  SER20      -0.2180
     42  N         28.5720   16.5840   56.1590 N.3    27  ARG27      -0.1245
     43  CA        28.3400   15.3500   56.9000 C.3    27  ARG27       0.1563
     44  C         28.3100   15.6430   58.3950 C.2    27  ARG27       0.2260
     45  O         27.4740   15.1070   59.1240 O.2    27  ARG27      -0.2867
     46  CB        29.4340   14.3160   56.6150 C.3    27  ARG27       0.0307
     47  CG        29.1700   12.9690   57.2860 C.3    27  ARG27       0.0489
     48  CD        27.9670   12.2880   56.6530 C.3    27  ARG27       0.2205
     49  NE        27.4980   11.1080   57.3810 N.pl3  27  ARG27      -0.0865
     50  CZ        26.6540   11.1400   58.4080 C.cat  27  ARG27       0.5346
     51  NH1       26.1780   12.2970   58.8550 N.pl3  27  ARG27       0.1354
     52  NH2       26.2470   10.0050   58.9600 N.pl3  27  ARG27       0.1354
     53  N         25.1590   17.2520   59.4310 N.3    30  ARG30      -0.1231
     54  CA        24.0910   16.2590   59.4780 C.3    30  ARG30       0.1694
     55  C         24.1300   15.4410   60.7630 C.2    30  ARG30       0.2592
     56  O         23.0880   15.1020   61.3200 O.2    30  ARG30      -0.2718
     57  CB        24.1660   15.3260   58.2670 C.3    30  ARG30       0.0321
     58  CG        23.1220   14.2160   58.2910 C.3    30  ARG30       0.0489
     59  CD        22.7230   13.8030   56.8860 C.3    30  ARG30       0.2205
     60  NE        23.8280   13.2330   56.1250 N.pl3  30  ARG30      -0.0865
     61  CZ        24.1090   11.9350   56.0630 C.cat  30  ARG30       0.5346
     62  NH1       23.3640   11.0580   56.7230 N.pl3  30  ARG30       0.1354
     63  NH2       25.1280   11.5120   55.3260 N.pl3  30  ARG30       0.1354
     64  N         25.3330   15.1240   61.2310 N.am   31  HIS31      -0.1976
     65  CA        25.4800   14.3570   62.4640 C.3    31  HIS31       0.1656
     66  C         24.8270   15.0640   63.6380 C.2    31  HIS31       0.2291
     67  O         24.0990   14.4530   64.4130 O.2    31  HIS31      -0.2864
     68  CB        26.9550   14.1490   62.8000 C.3    31  HIS31       0.0771
     69  CG        27.5690   12.9650   62.1270 C.ar   31  HIS31       0.0820
     70  ND1       27.1360   11.6770   62.3530 N.ar   31  HIS31      -0.2267
     71  CD2       28.6000   12.8700   61.2550 C.ar   31  HIS31       0.1154
     72  CE1       27.8780   10.8370   61.6520 C.ar   31  HIS31       0.1986
     73  NE2       28.7730   11.5360   60.9780 N.ar   31  HIS31      -0.2212
     74  N         22.2810    7.1900   64.2140 N.3    41  SER41      -0.1217
     75  CA        22.5530    5.7710   63.9930 C.3    41  SER41       0.1889
     76  C         23.3510    5.0920   65.1020 C.2    41  SER41       0.2288
     77  O         23.2660    3.8760   65.2750 O.2    41  SER41      -0.2866
     78  CB        23.2800    5.5810   62.6550 C.3    41  SER41       0.2089
     79  OG        24.4970    6.3110   62.6130 O.3    41  SER41      -0.2183
     80  N         38.3330    3.4260   56.1490 N.3    75  ALA75      -0.1245
     81  CA        37.4850    3.7130   57.2990 C.3    75  ALA75       0.1562
     82  C         37.7230    2.6280   58.3490 C.2    75  ALA75       0.2260
     83  O         37.8760    2.9210   59.5370 O.2    75  ALA75      -0.2867
     84  CB        36.0210    3.7340   56.8870 C.3    75  ALA75       0.0290
     85  N         39.0940    2.8440   62.2340 N.3    79  ILE79      -0.1245
     86  CA        38.2420    2.3690   63.3220 C.3    79  ILE79       0.1561
     87  C         39.0660    1.4530   64.2220 C.2    79  ILE79       0.2260
     88  O         38.9850    1.5270   65.4450 O.2    79  ILE79      -0.2867
     89  CB        37.0240    1.5850   62.7860 C.3    79  ILE79       0.0252
     90  CG1       36.0190    2.5520   62.1610 C.3    79  ILE79       0.0019
     91  CG2       36.3630    0.7960   63.9140 C.3    79  ILE79       0.0019
     92  CD1       34.8670    1.8590   61.4610 C.3    79  ILE79       0.0001
     93  N         31.7070    4.1370   67.4400 N.3    90  ASN90      -0.1240
     94  CA        31.2810    3.3190   66.3080 C.3    90  ASN90       0.1653
     95  C         30.6420    2.0390   66.8260 C.2    90  ASN90       0.2266
     96  O         31.1570    1.4190   67.7550 O.2    90  ASN90      -0.2867
     97  CB        32.4670    2.9740   65.4080 C.3    90  ASN90       0.1155
     98  CG        32.9720    4.1720   64.6400 C.2    90  ASN90       0.2627
     99  OD1       33.8510    4.8980   65.1050 O.2    90  ASN90      -0.2716
    100  ND2       32.4040    4.3970   63.4620 N.am   90  ASN90      -0.0877
    101  N         29.8740   -0.6090   64.7430 N.3    92  ALA92      -0.1231
    102  CA        30.2100   -1.7150   63.8570 C.3    92  ALA92       0.1694
    103  C         31.2630   -1.2570   62.8640 C.2    92  ALA92       0.2592
    104  O         31.6780   -0.1020   62.8870 O.2    92  ALA92      -0.2718
    105  CB        28.9660   -2.1890   63.1180 C.3    92  ALA92       0.0304
    106  N         31.7110   -2.1650   62.0040 N.am   93  ASP93      -0.1960
    107  CA        32.6950   -1.7840   61.0060 C.3    93  ASP93       0.1840
    108  C         32.0420   -0.8320   60.0170 C.2    93  ASP93       0.2622
    109  O         30.8200   -0.6750   60.0020 O.2    93  ASP93      -0.2715
    110  CB        33.2590   -3.0070   60.2830 C.3    93  ASP93       0.1450
    111  CG        34.2470   -3.7740   61.1370 C.2    93  ASP93       0.3671
    112  OD1       34.9430   -3.1340   61.9560 O.co2  93  ASP93      -0.2456
    113  OD2       34.3400   -5.0070   60.9790 O.co2  93  ASP93      -0.2456
    114  N         32.8660   -0.2050   59.1890 N.am   94  ALA94      -0.1963
    115  CA        32.4050    0.7840   58.2220 C.3    94  ALA94       0.1728
    116  C         31.4100    0.3560   57.1550 C.2    94  ALA94       0.2617
    117  O         31.4080   -0.7860   56.6930 O.2    94  ALA94      -0.2715
    118  CB        33.6130    1.4290   57.5510 C.3    94  ALA94       0.0334
    119  N         30.5620    1.3070   56.7730 N.am   95  THR95      -0.1937
    120  CA        29.5690    1.1100   55.7270 C.3    95  THR95       0.2028
    121  C         29.8150    2.2200   54.7040 C.2    95  THR95       0.2642
    122  O         30.5520    3.1700   54.9830 O.2    95  THR95      -0.2714
    123  CB        28.1300    1.2160   56.2720 C.3    95  THR95       0.1808
    124  OG1       27.1990    0.9700   55.2100 O.3    95  THR95      -0.2208
    125  CG2       27.8740    2.5930   56.8490 C.3    95  THR95       0.0379
    126  N         29.2090    2.1070   53.5280 N.am   96  PHE96      -0.1959
    127  CA        29.4030    3.1050   52.4820 C.3    96  PHE96       0.1771
    128  C         28.0870    3.5640   51.8670 C.2    96  PHE96       0.2620
    129  O         27.1030    2.8240   51.8620 O.2    96  PHE96      -0.2715
    130  CB        30.2970    2.5260   51.3800 C.3    96  PHE96       0.0574
    131  CG        30.6300    3.5040   50.2910 C.ar   96  PHE96      -0.0200
    132  CD1       31.5950    4.4850   50.4870 C.ar   96  PHE96      -0.0042
    133  CD2       29.9680    3.4500   49.0670 C.ar   96  PHE96      -0.0042
    134  CE1       31.8980    5.3980   49.4800 C.ar   96  PHE96      -0.0003
    135  CE2       30.2630    4.3560   48.0560 C.ar   96  PHE96      -0.0003
    136  CZ        31.2300    5.3330   48.2600 C.ar   96  PHE96      -0.0000
    137  N         28.0790    4.7900   51.3510 N.am   97  GLY97      -0.1954
    138  CA        26.8880    5.3250   50.7130 C.3    97  GLY97       0.1869
    139  C         25.8490    5.9030   51.6520 C.2    97  GLY97       0.2309
    140  O         26.0540    5.8580   52.8830 O.2    97  GLY97      -0.2863
@<TRIPOS>BOND
     1   135   136   ar
     2   135   133   ar
     3   136   134   ar
     4   133   131   ar
     5   134   132   ar
     6   131   132   ar
     7   131   130    1
     8   138   137    1
     9   138   139    1
    10   137   128   am
    11   130   127    1
    12   139   140    2
    13   129   128    2
    14   128   127    1
    15   127   126    1
    16   126   121   am
    17   121   122    2
    18   121   120    1
    19    41    40    1
    20    40    37    1
    21   124   123    1
    22    38    39    2
    23    38    37    1
    24    63    61    1
    25   120   123    1
    26   120   119    1
    27    37    36    1
    28    61    60    2
    29    61    62    1
    30    60    59    1
    31    80    81    1
    32    42    43    1
    33   123   125    1
    34    46    43    1
    35    46    47    1
    36    48    47    1
    37    48    49    1
    38   117   116    2
    39   119   116   am
    40    59    58    1
    41    84    81    1
    42    43    44    1
    43   116   115    1
    44    36    34   am
    45    81    82    1
    46    49    50    2
    47   118   115    1
    48    35    34    2
    49     8    10   ar
    50     8     6   ar
    51   115   114    1
    52    34    33    1
    53    10    11   ar
    54    57    58    1
    55    57    54    1
    56    82    83    2
    57    44    45    2
    58    50    51    1
    59    50    52    1
    60     1     2    1
    61   114   108   am
    62     5     6    1
    63     5     2    1
    64     6     7   ar
    65    53    54    1
    66    54    55    1
    67    11    12    1
    68    11     9   ar
    69     2     3    1
    70    33    32    1
    71   109   108    2
    72   108   107    1
    73   110   107    1
    74   110   111    1
    75     7     9   ar
    76    32    27   am
    77    55    64   am
    78    55    56    2
    79     3     4    2
    80    73    71   ar
    81    73    72   ar
    82   113   111   ar
    83   107   106    1
    84   111   112   ar
    85    30    29    1
    86    64    65    1
    87    71    69   ar
    88    92    90    1
    89    72    70   ar
    90    27    28    2
    91    27    26    1
    92   106   103   am
    93    69    70   ar
    94    69    68    1
    95    90    89    1
    96    24    23    1
    97    85    86    1
    98    65    68    1
    99    65    66    1
   100    79    78    1
   101    29    26    1
   102    29    31    1
   103    78    75    1
   104    26    25    1
   105    89    86    1
   106    89    91    1
   107    22    23   ar
   108    22    20   ar
   109   103   104    2
   110   103   102    1
   111   105   102    1
   112    23    21   ar
   113    86    87    1
   114   100    98   am
   115    66    67    2
   116    20    18   ar
   117   102   101    1
   118    75    74    1
   119    75    76    1
   120    25    15   am
   121    87    88    2
   122    21    19   ar
   123    16    15    2
   124    98    99    2
   125    98    97    1
   126    15    14    1
   127    18    19   ar
   128    18    17    1
   129    76    77    2
   130    97    94    1
   131    17    14    1
   132    14    13    1
   133    94    95    1
   134    94    93    1
   135    95    96    2
