@<TRIPOS>MOLECULE
tmp/1mk1A00.pdb
 132 121 0 0 0
SMALL
GASTEIGER

@<TRIPOS>ATOM
      1  N         34.2120   27.3560    7.5790 N.3    13  ALA13      -0.1231
      2  CA        33.1240   27.7740    6.7060 C.3    13  ALA13       0.1694
      3  C         31.7470   27.6310    7.3730 C.2    13  ALA13       0.2592
      4  O         30.9810   28.5960    7.4450 O.2    13  ALA13      -0.2718
      5  CB        33.1710   26.9640    5.4070 C.3    13  ALA13       0.0304
      6  N         31.4420   26.4350    7.8780 N.am   14  ILE14      -0.1966
      7  CA        30.1420   26.1950    8.5040 C.3    14  ILE14       0.1727
      8  C         30.1400   25.9970   10.0260 C.2    14  ILE14       0.2616
      9  O         29.0720   25.8380   10.6310 O.2    14  ILE14      -0.2715
     10  CB        29.4190   24.9810    7.8500 C.3    14  ILE14       0.0290
     11  CG1       30.1430   23.6810    8.1880 C.3    14  ILE14       0.0022
     12  CG2       29.3680   25.1590    6.3400 C.3    14  ILE14       0.0023
     13  CD1       29.3530   22.4540    7.8110 C.3    14  ILE14       0.0001
     14  N         31.3170   25.9990   10.6480 N.am   15  PHE15      -0.1974
     15  CA        31.3860   25.8490   12.0990 C.3    15  PHE15       0.1639
     16  C         32.6770   26.3660   12.7100 C.2    15  PHE15       0.2290
     17  O         33.6630   26.6050   12.0160 O.2    15  PHE15      -0.2864
     18  CB        31.1640   24.3850   12.5090 C.3    15  PHE15       0.0560
     19  CG        32.2100   23.4280   11.9970 C.ar   15  PHE15      -0.0200
     20  CD1       33.4890   23.4070   12.5460 C.ar   15  PHE15      -0.0042
     21  CD2       31.8980   22.5170   10.9890 C.ar   15  PHE15      -0.0042
     22  CE1       34.4390   22.4930   12.1060 C.ar   15  PHE15      -0.0003
     23  CE2       32.8410   21.5970   10.5380 C.ar   15  PHE15      -0.0003
     24  CZ        34.1140   21.5820   11.0980 C.ar   15  PHE15      -0.0000
     25  N         27.6850   25.3900   15.6100 N.3    32  HIS32      -0.1241
     26  CA        27.0480   25.1600   14.3160 C.3    32  HIS32       0.1621
     27  C         25.8830   26.1290   14.0930 C.2    32  HIS32       0.2264
     28  O         25.3710   26.7170   15.0460 O.2    32  HIS32      -0.2867
     29  CB        26.5670   23.6980   14.3010 C.3    32  HIS32       0.0745
     30  CG        26.1950   23.1680   12.9480 C.ar   32  HIS32       0.0817
     31  ND1       24.9410   23.3350   12.3960 N.ar   32  HIS32      -0.2268
     32  CD2       26.8970   22.4210   12.0610 C.ar   32  HIS32       0.1154
     33  CE1       24.8870   22.7130   11.2320 C.ar   32  HIS32       0.1986
     34  NE2       26.0610   22.1500   11.0040 N.ar   32  HIS32      -0.2212
     35  N         20.1600   23.4920   11.5960 N.3    35  ALA35      -0.1245
     36  CA        19.6050   23.2290   10.2810 C.3    35  ALA35       0.1562
     37  C         18.1360   22.8760   10.4010 C.2    35  ALA35       0.2260
     38  O         17.5950   22.7490   11.5040 O.2    35  ALA35      -0.2867
     39  CB        20.3660   22.0980    9.6060 C.3    35  ALA35       0.0290
     40  N         22.1910   11.9670   -1.2910 N.3    52  GLN52      -0.1245
     41  CA        23.3300   12.8750   -1.3180 C.3    52  GLN52       0.1566
     42  C         24.6610   12.3330   -0.7930 C.2    52  GLN52       0.2260
     43  O         24.7210   11.6560    0.2400 O.2    52  GLN52      -0.2867
     44  CB        22.9470   14.1430   -0.5500 C.3    52  GLN52       0.0367
     45  CG        24.0490   15.1680   -0.4020 C.3    52  GLN52       0.0905
     46  CD        23.4940   16.5480   -0.1440 C.2    52  GLN52       0.2608
     47  OE1       22.4590   16.6980    0.5120 O.2    52  GLN52      -0.2717
     48  NE2       24.1800   17.5710   -0.6520 N.am   52  GLN52      -0.0878
     49  N         28.0390   12.2030    1.0880 N.3    54  ARG54      -0.1245
     50  CA        28.5340   12.7750    2.3340 C.3    54  ARG54       0.1563
     51  C         30.0270   12.4590    2.4470 C.2    54  ARG54       0.2260
     52  O         30.4220   11.3150    2.6820 O.2    54  ARG54      -0.2867
     53  CB        27.7650   12.2060    3.5350 C.3    54  ARG54       0.0307
     54  CG        26.3270   12.7080    3.6340 C.3    54  ARG54       0.0489
     55  CD        26.2940   14.2290    3.7080 C.3    54  ARG54       0.2205
     56  NE        24.9420   14.7650    3.7960 N.pl3  54  ARG54      -0.0865
     57  CZ        24.6460   16.0620    3.8290 C.cat  54  ARG54       0.5346
     58  NH1       25.6080   16.9780    3.7800 N.pl3  54  ARG54       0.1354
     59  NH2       23.3800   16.4500    3.9210 N.pl3  54  ARG54       0.1354
     60  N         32.0650   13.0050    4.7380 N.3    56  THR56      -0.1218
     61  CA        32.4360   12.4530    6.0360 C.3    56  THR56       0.1862
     62  C         32.5020   10.9240    6.0290 C.2    56  THR56       0.2287
     63  O         33.3770   10.3340    6.6670 O.2    56  THR56      -0.2866
     64  CB        31.4500   12.8780    7.1310 C.3    56  THR56       0.1770
     65  OG1       30.1170   12.6700    6.6610 O.3    56  THR56      -0.2211
     66  CG2       31.6480   14.3330    7.5010 C.3    56  THR56       0.0375
     67  N         17.1770   19.0260    3.3490 N.3    66  ALA66      -0.1231
     68  CA        17.5850   19.8160    4.5030 C.3    66  ALA66       0.1694
     69  C         18.6320   20.8790    4.1510 C.2    66  ALA66       0.2593
     70  O         19.3180   20.7880    3.1240 O.2    66  ALA66      -0.2718
     71  CB        18.1170   18.8900    5.6020 C.3    66  ALA66       0.0304
     72  N         18.7390   21.8870    5.0130 N.am   67  GLY67      -0.1942
     73  CA        19.6880   22.9640    4.8030 C.3    67  GLY67       0.2014
     74  C         20.1000   23.6460    6.0990 C.2    67  GLY67       0.2638
     75  O         19.3840   23.5870    7.1070 O.2    67  GLY67      -0.2714
     76  N         21.2620   24.2920    6.0690 N.am   68  LEU68      -0.1977
     77  CA        21.7920   25.0000    7.2240 C.3    68  LEU68       0.1596
     78  C         21.0560   26.3150    7.4350 C.2    68  LEU68       0.2287
     79  O         20.5450   26.9130    6.4850 O.2    68  LEU68      -0.2864
     80  CB        23.2720   25.2980    7.0100 C.3    68  LEU68       0.0297
     81  CG        24.2080   24.1130    6.7620 C.3    68  LEU68       0.0022
     82  CD1       25.5960   24.6190    6.4150 C.3    68  LEU68       0.0001
     83  CD2       24.2650   23.2390    8.0030 C.3    68  LEU68       0.0001
     84  N         21.9830   29.2210    7.6620 N.3    70  ASP70      -0.1239
     85  CA        23.0710   30.1520    7.4060 C.3    70  ASP70       0.1674
     86  C         22.6350   31.5140    6.8890 C.2    70  ASP70       0.2266
     87  O         23.4610   32.2750    6.3760 O.2    70  ASP70      -0.2867
     88  CB        24.0600   29.5480    6.4160 C.3    70  ASP70       0.1410
     89  CG        23.4040   29.1430    5.1210 C.2    70  ASP70       0.3668
     90  OD1       22.3900   29.7710    4.7490 O.co2  70  ASP70      -0.2456
     91  OD2       23.9090   28.2060    4.4660 O.co2  70  ASP70      -0.2456
     92  N         14.2860   25.3270    0.9910 N.3    83  GLU83      -0.1245
     93  CA        14.9670   24.0560    0.7550 C.3    83  GLU83       0.1567
     94  C         14.0470   23.0320    0.0940 C.2    83  GLU83       0.2260
     95  O         14.4530   22.3390   -0.8380 O.2    83  GLU83      -0.2867
     96  CB        15.5150   23.4990    2.0800 C.3    83  GLU83       0.0388
     97  CG        16.5500   22.3710    1.9410 C.3    83  GLU83       0.1160
     98  CD        17.7850   22.7760    1.1330 C.2    83  GLU83       0.3649
     99  OE1       18.3160   23.8860    1.3630 O.co2  83  GLU83      -0.2457
    100  OE2       18.2290   21.9730    0.2790 O.co2  83  GLU83      -0.2457
    101  N         21.6370   16.5440   17.1760 N.3   103  THR103     -0.1218
    102  CA        22.4790   15.5760   16.4800 C.3   103  THR103      0.1862
    103  C         23.6860   14.9610   17.1990 C.2   103  THR103      0.2287
    104  O         23.7600   13.7440   17.3440 O.2   103  THR103     -0.2866
    105  CB        22.9590   16.1660   15.1460 C.3   103  THR103      0.1770
    106  OG1       23.5570   17.4450   15.3820 O.3   103  THR103     -0.2211
    107  CG2       21.7880   16.3150   14.1890 C.3   103  THR103      0.0375
    108  N         24.9220   21.8190   17.5080 N.3   110  GLU110     -0.1245
    109  CA        23.9640   21.7290   16.4200 C.3   110  GLU110      0.1567
    110  C         22.6530   21.0910   16.8460 C.2   110  GLU110      0.2260
    111  O         22.6220   20.0830   17.5630 O.2   110  GLU110     -0.2867
    112  CB        24.4990   20.9260   15.2380 C.3   110  GLU110      0.0388
    113  CG        23.3920   20.7600   14.2120 C.3   110  GLU110      0.1160
    114  CD        23.7200   19.8350   13.0690 C.2   110  GLU110      0.3649
    115  OE1       24.1600   18.6870   13.3050 O.co2 110  GLU110     -0.2457
    116  OE2       23.5090   20.2620   11.9200 O.co2 110  GLU110     -0.2457
    117  N         21.1830    8.4740    8.1280 N.3   146  ASN146     -0.1240
    118  CA        21.2670    9.8920    8.4660 C.3   146  ASN146      0.1653
    119  C         20.3430   10.0910    9.6820 C.2   146  ASN146      0.2266
    120  O         19.1610    9.7790    9.6120 O.2   146  ASN146     -0.2867
    121  CB        20.8010   10.7150    7.2560 C.3   146  ASN146      0.1155
    122  CG        20.7450   12.2060    7.5330 C.2   146  ASN146      0.2627
    123  OD1       19.9930   12.6550    8.3930 O.2   146  ASN146     -0.2716
    124  ND2       21.5330   12.9820    6.7900 N.am  146  ASN146     -0.0877
    125  N         18.9250   12.6660   11.0610 N.3   148  ILE148     -0.1245
    126  CA        17.8000   13.5820   10.8550 C.3   148  ILE148      0.1561
    127  C         16.6700   12.8680   10.1200 C.2   148  ILE148      0.2260
    128  O         15.4910   13.0210   10.4490 O.2   148  ILE148     -0.2867
    129  CB        18.2510   14.8040   10.0400 C.3   148  ILE148      0.0252
    130  CG1       19.3310   15.5620   10.8270 C.3   148  ILE148      0.0019
    131  CG2       17.0540   15.6880    9.7150 C.3   148  ILE148      0.0019
    132  CD1       20.1390   16.5300   10.0070 C.3   148  ILE148      0.0001
@<TRIPOS>BOND
     1    41    40    1
     2    41    42    1
     3    41    44    1
     4    95    94    2
     5    42    43    2
     6    48    46   am
     7    44    45    1
     8    45    46    1
     9    46    47    2
    10    94    93    1
    11   100    98   ar
    12    93    92    1
    13    93    96    1
    14    49    50    1
    15    98    99   ar
    16    98    97    1
    17    97    96    1
    18    50    51    1
    19    50    53    1
    20    51    52    2
    21    70    69    2
    22    67    68    1
    23    53    54    1
    24    54    55    1
    25    55    56    1
    26    58    57    1
    27    56    57    2
    28    57    59    1
    29    69    68    1
    30    69    72   am
    31    91    89   ar
    32    68    71    1
    33    60    61    1
    34    90    89   ar
    35    73    72    1
    36    73    74    1
    37    89    88    1
    38     5     2    1
    39    62    61    1
    40    62    63    2
    41    61    64    1
    42    76    74   am
    43    76    77    1
    44    74    75    2
    45    12    10    1
    46    87    86    2
    47    82    81    1
    48    88    85    1
    49    79    78    2
    50    65    64    1
    51     2     3    1
    52     2     1    1
    53    81    80    1
    54    81    83    1
    55   124   122   am
    56    86    85    1
    57    80    77    1
    58    64    66    1
    59    77    78    1
    60   121   122    1
    61   121   118    1
    62     3     4    2
    63     3     6   am
    64    85    84    1
    65   122   123    2
    66    13    11    1
    67    10    11    1
    68    10     7    1
    69     6     7    1
    70   117   118    1
    71   118   119    1
    72     7     8    1
    73    39    36    1
    74   120   119    2
    75   131   129    1
    76   132   130    1
    77     8     9    2
    78     8    14   am
    79   129   130    1
    80   129   126    1
    81   127   128    2
    82   127   126    1
    83    36    37    1
    84    36    35    1
    85    37    38    2
    86    23    21   ar
    87    23    24   ar
    88    14    15    1
    89   126   125    1
    90    21    19   ar
    91    34    33   ar
    92    34    32   ar
    93    24    22   ar
    94    33    31   ar
    95   116   114   ar
    96    19    18    1
    97    19    20   ar
    98    17    16    2
    99    32    30   ar
   100    15    18    1
   101    15    16    1
   102    22    20   ar
   103    31    30   ar
   104    30    29    1
   105   114   115   ar
   106   114   113    1
   107    27    26    1
   108    27    28    2
   109   107   105    1
   110   113   112    1
   111    29    26    1
   112    26    25    1
   113   105   106    1
   114   105   102    1
   115   112   109    1
   116   109   110    1
   117   109   108    1
   118   102   101    1
   119   102   103    1
   120   110   111    2
   121   103   104    2
