@<TRIPOS>MOLECULE
tmp/1mkaA01.pdb
 131 129 0 0 0
SMALL
GASTEIGER

@<TRIPOS>ATOM
      1  N        -28.3770   10.1310   12.4240 N.3    26  PRO26      -0.2102
      2  CA       -27.1010    9.4590   12.6900 C.3    26  PRO26       0.1504
      3  C        -26.7550    9.4870   14.1720 C.2    26  PRO26       0.2576
      4  O        -27.2770   10.3120   14.9360 O.2    26  PRO26      -0.2718
      5  CB       -26.1210   10.3080   11.8750 C.3    26  PRO26       0.0282
      6  CG       -26.7000   11.6930   12.0230 C.3    26  PRO26       0.0208
      7  CD       -28.1790   11.4430   11.8060 C.3    26  PRO26       0.0893
      8  N        -25.8620    8.5830   14.5710 N.am   27  GLN27      -0.1966
      9  CA       -25.3940    8.4890   15.9480 C.3    27  GLN27       0.1733
     10  C        -23.9230    8.8550   16.0040 C.2    27  GLN27       0.2616
     11  O        -23.1750    8.6060   15.0590 O.2    27  GLN27      -0.2715
     12  CB       -25.4780    7.0490   16.4610 C.3    27  GLN27       0.0408
     13  CG       -26.8480    6.4380   16.5790 C.3    27  GLN27       0.0908
     14  CD       -26.7480    4.9220   16.7050 C.2    27  GLN27       0.2608
     15  OE1      -26.9040    4.2040   15.7220 O.2    27  GLN27      -0.2717
     16  NE2      -26.4150    4.4370   17.8910 N.am   27  GLN27      -0.0878
     17  N        -23.5170    9.4710   17.1020 N.am   28  LEU28      -0.1964
     18  CA       -22.1190    9.7680   17.3260 C.3    28  LEU28       0.1713
     19  C        -21.6020    8.4850   17.9810 C.2    28  LEU28       0.2458
     20  O        -22.3960    7.6660   18.4540 O.2    28  LEU28      -0.2730
     21  CB       -21.9700   10.8860   18.3540 C.3    28  LEU28       0.0310
     22  CG       -21.9670   12.3170   17.8540 C.3    28  LEU28       0.0022
     23  CD1      -21.8600   13.2500   19.0500 C.3    28  LEU28       0.0001
     24  CD2      -20.7850   12.5110   16.9080 C.3    28  LEU28       0.0001
     25  N        -20.2780    8.2410   17.9360 N.am   29  PRO29      -0.2727
     26  CA       -19.7470    7.0360   18.5770 C.3    29  PRO29       0.1402
     27  C        -19.9510    7.2520   20.0820 C.2    29  PRO29       0.2269
     28  O        -20.1590    8.3900   20.5290 O.2    29  PRO29      -0.2865
     29  CB       -18.2560    7.1030   18.2490 C.3    29  PRO29       0.0296
     30  CG       -18.2260    7.8470   16.9290 C.3    29  PRO29       0.0237
     31  CD       -19.2440    8.9280   17.1390 C.3    29  PRO29       0.0939
     32  N        -14.9620    5.9800   21.9980 N.3    33  MET33      -0.1245
     33  CA       -14.6780    6.5650   20.6930 C.3    33  MET33       0.1570
     34  C        -15.1840    8.0190   20.5570 C.2    33  MET33       0.2261
     35  O        -14.7650    8.7440   19.6520 O.2    33  MET33      -0.2867
     36  CB       -15.2050    5.6780   19.5490 C.3    33  MET33       0.0387
     37  CG       -14.2390    4.5500   19.1190 C.3    33  MET33       0.0595
     38  SD       -12.5480    5.1020   18.6600 S.3    33  MET33      -0.1393
     39  CE       -12.8600    6.0680   17.2210 C.3    33  MET33       0.0692
     40  N        -10.6110   11.6780   13.9140 N.3    84  ASP84      -0.1239
     41  CA       -11.9450   11.0790   13.9700 C.3    84  ASP84       0.1674
     42  C        -12.9650   12.0560   14.5200 C.2    84  ASP84       0.2266
     43  O        -14.1170   12.0680   14.0920 O.2    84  ASP84      -0.2867
     44  CB       -11.9720    9.7880   14.8000 C.3    84  ASP84       0.1410
     45  CG       -12.9780    8.7980   14.2610 C.2    84  ASP84       0.3668
     46  OD1      -12.7160    8.2480   13.1720 O.co2  84  ASP84      -0.2456
     47  OD2      -14.0520    8.6150   14.8720 O.co2  84  ASP84      -0.2456
     48  N        -14.3340   14.0160   11.7270 N.3    87  TRP87      -0.1227
     49  CA       -15.2970   13.2720   10.9180 C.3    87  TRP87       0.1737
     50  C        -16.6080   13.2000   11.6910 C.2    87  TRP87       0.2595
     51  O        -17.6840   13.3600   11.1150 O.2    87  TRP87      -0.2718
     52  CB       -14.8020   11.8470   10.6080 C.3    87  TRP87       0.0564
     53  CG       -13.8920   11.7490    9.4090 C.ar   87  TRP87       0.0003
     54  CD1      -14.0170   12.4120    8.2180 C.ar   87  TRP87       0.0946
     55  CD2      -12.7230   10.9320    9.2880 C.ar   87  TRP87       0.0152
     56  NE1      -12.9960   12.0560    7.3630 N.ar   87  TRP87      -0.2442
     57  CE2      -12.1840   11.1520    7.9980 C.ar   87  TRP87       0.0810
     58  CE3      -12.0770   10.0310   10.1490 C.ar   87  TRP87       0.0012
     59  CZ2      -11.0280   10.5050    7.5400 C.ar   87  TRP87       0.0191
     60  CZ3      -10.9250    9.3820    9.6960 C.ar   87  TRP87       0.0001
     61  CH2      -10.4130    9.6290    8.3950 C.ar   87  TRP87       0.0015
     62  N        -16.5050   12.9660   13.0010 N.am   88  GLN88      -0.1979
     63  CA       -17.6730   12.8840   13.8710 C.3    88  GLN88       0.1601
     64  C        -18.4940   14.1730   13.8130 C.2    88  GLN88       0.2287
     65  O        -19.7230   14.1250   13.7180 O.2    88  GLN88      -0.2864
     66  CB       -17.2590   12.6060   15.3260 C.3    88  GLN88       0.0394
     67  CG       -16.6860   11.1910   15.5820 C.3    88  GLN88       0.0908
     68  CD       -16.1900   10.9860   17.0170 C.2    88  GLN88       0.2608
     69  OE1      -16.7260   11.5650   17.9580 O.2    88  GLN88      -0.2717
     70  NE2      -15.1570   10.1680   17.1810 N.am   88  GLN88      -0.0878
     71  N        -20.3180   14.5790   10.4040 N.3    91  GLY91      -0.1210
     72  CA       -21.4970   13.7260   10.3840 C.3    91  GLY91       0.1956
     73  C        -22.5990   14.2180   11.3060 C.2    91  GLY91       0.2611
     74  O        -23.7800   14.1200   10.9780 O.2    91  GLY91      -0.2717
     75  N        -22.2210   14.7170   12.4780 N.am   92  PHE92      -0.1976
     76  CA       -23.1860   15.2440   13.4450 C.3    92  PHE92       0.1639
     77  C        -23.9700   16.4330   12.8460 C.2    92  PHE92       0.2290
     78  O        -25.1900   16.5510   13.0080 O.2    92  PHE92      -0.2864
     79  CB       -22.4410   15.6990   14.7010 C.3    92  PHE92       0.0560
     80  CG       -23.3380   16.1180   15.8240 C.ar   92  PHE92      -0.0200
     81  CD1      -24.0820   15.1720   16.5260 C.ar   92  PHE92      -0.0042
     82  CD2      -23.4160   17.4570   16.2070 C.ar   92  PHE92      -0.0042
     83  CE1      -24.8910   15.5530   17.6050 C.ar   92  PHE92      -0.0003
     84  CE2      -24.2180   17.8490   17.2770 C.ar   92  PHE92      -0.0003
     85  CZ       -24.9590   16.8960   17.9800 C.ar   92  PHE92      -0.0000
     86  N        -23.9160    7.1330    9.8300 N.3   103  GLY103     -0.1210
     87  CA       -22.7290    7.8650    9.4320 C.3   103  GLY103      0.1956
     88  C        -21.5660    6.9690    9.0440 C.2   103  GLY103      0.2612
     89  O        -21.3250    5.9300    9.6790 O.2   103  GLY103     -0.2717
     90  N        -20.8840    7.3360    7.9610 N.am  104  ARG104     -0.1965
     91  CA       -19.7040    6.6190    7.4790 C.3   104  ARG104      0.1729
     92  C        -18.7200    7.6450    6.8980 C.2   104  ARG104      0.2616
     93  O        -19.0830    8.4370    6.0270 O.2   104  ARG104     -0.2715
     94  CB       -20.0680    5.5990    6.3890 C.3   104  ARG104      0.0348
     95  CG       -20.9190    4.4060    6.8300 C.3   104  ARG104      0.0492
     96  CD       -20.1310    3.4540    7.7250 C.3   104  ARG104      0.2205
     97  NE       -20.8320    2.1970    8.0000 N.pl3 104  ARG104     -0.0865
     98  CZ       -21.7340    2.0180    8.9710 C.cat 104  ARG104      0.5346
     99  NH1      -22.0640    3.0230    9.7790 N.pl3 104  ARG104      0.1354
    100  NH2      -22.3030    0.8280    9.1420 N.pl3 104  ARG104      0.1354
    101  N        -17.5020    7.6760    7.4260 N.am  105  ALA105     -0.1963
    102  CA       -16.4720    8.5700    6.9100 C.3   105  ALA105      0.1728
    103  C        -16.0880    8.0470    5.5290 C.2   105  ALA105      0.2616
    104  O        -15.9200    6.8270    5.3400 O.2   105  ALA105     -0.2715
    105  CB       -15.2540    8.5640    7.8220 C.3   105  ALA105      0.0334
    106  N        -15.9440    8.9640    4.5740 N.am  106  LEU106     -0.1977
    107  CA       -15.5880    8.6170    3.2040 C.3   106  LEU106      0.1596
    108  C        -14.1290    8.8950    2.8760 C.2   106  LEU106      0.2287
    109  O        -13.5700    8.3020    1.9370 O.2   106  LEU106     -0.2864
    110  CB       -16.5100    9.3330    2.2250 C.3   106  LEU106      0.0297
    111  CG       -17.9880    8.9750    2.4110 C.3   106  LEU106      0.0022
    112  CD1      -18.8670    9.7730    1.4600 C.3   106  LEU106      0.0001
    113  CD2      -18.1800    7.4900    2.1860 C.3   106  LEU106      0.0001
    114  N        -17.7720   12.9930    4.6780 N.3   162  VAL162     -0.1245
    115  CA       -18.6170   12.0690    5.4210 C.3   162  VAL162      0.1561
    116  C        -20.0060   12.0180    4.7930 C.2   162  VAL162      0.2260
    117  O        -20.5300   13.0460    4.3780 O.2   162  VAL162     -0.2867
    118  CB       -18.8160   12.5330    6.8980 C.3   162  VAL162      0.0252
    119  CG1      -19.7890   11.6060    7.6270 C.3   162  VAL162      0.0019
    120  CG2      -17.4880   12.5830    7.6350 C.3   162  VAL162      0.0019
    121  N        -21.1200   -1.7730    1.4410 N.3   171  PHE171     -0.1241
    122  CA       -19.8000   -1.4220    1.9510 C.3   171  PHE171      0.1605
    123  C        -19.1110   -2.6540    2.5010 C.2   171  PHE171      0.2264
    124  O        -19.7990   -3.6490    2.7900 O.2   171  PHE171     -0.2867
    125  CB       -19.8930   -0.3580    3.0460 C.3   171  PHE171      0.0534
    126  CG       -20.3570    0.9720    2.5580 C.ar  171  PHE171     -0.0203
    127  CD1      -19.8190    1.5280    1.4070 C.ar  171  PHE171     -0.0042
    128  CD2      -21.3270    1.6730    3.2470 C.ar  171  PHE171     -0.0042
    129  CE1      -20.2470    2.7670    0.9420 C.ar  171  PHE171     -0.0003
    130  CE2      -21.7650    2.9120    2.7940 C.ar  171  PHE171     -0.0003
    131  CZ       -21.2220    3.4610    1.6410 C.ar  171  PHE171     -0.0000
@<TRIPOS>BOND
     1   129   127   ar
     2   129   131   ar
     3   127   126   ar
     4   121   122    1
     5   112   111    1
     6   131   130   ar
     7   109   108    2
     8   122   123    1
     9   122   125    1
    10   113   111    1
    11   110   111    1
    12   110   107    1
    13   123   124    2
    14   126   125    1
    15   126   128   ar
    16   130   128   ar
    17   108   107    1
    18   107   106    1
    19   117   116    2
    20   106   103   am
    21   114   115    1
    22   116   115    1
    23   104   103    2
    24   115   118    1
    25   103   102    1
    26    93    92    2
    27    94    95    1
    28    94    91    1
    29    95    96    1
    30   118   119    1
    31   118   120    1
    32    92   101   am
    33    92    91    1
    34   102   101    1
    35   102   105    1
    36    56    57   ar
    37    56    54   ar
    38    91    90    1
    39    59    57   ar
    40    59    61   ar
    41    96    97    1
    42    90    88   am
    43    57    55   ar
    44    97    98    2
    45    54    53   ar
    46    61    60   ar
    47    98   100    1
    48    98    99    1
    49    88    87    1
    50    88    89    2
    51    55    53   ar
    52    55    58   ar
    53    53    52    1
    54    87    86    1
    55    60    58   ar
    56    72    71    1
    57    72    73    1
    58    52    49    1
    59    49    50    1
    60    49    48    1
    61    74    73    2
    62    51    50    2
    63    73    75   am
    64    50    62   am
    65     7     6    1
    66     7     1    1
    67     5     6    1
    68     5     2    1
    69     1     2    1
    70    75    76    1
    71     2     3    1
    72    77    78    2
    73    77    76    1
    74    62    63    1
    75    46    45   ar
    76    76    79    1
    77    65    64    2
    78    64    63    1
    79    63    66    1
    80    40    41    1
    81    41    42    1
    82    41    44    1
    83    43    42    2
    84     3     8   am
    85     3     4    2
    86    45    44    1
    87    45    47   ar
    88     8     9    1
    89    79    80    1
    90    11    10    2
    91    66    67    1
    92    67    68    1
    93    15    14    2
    94    80    82   ar
    95    80    81   ar
    96     9    10    1
    97     9    12    1
    98    10    17   am
    99    82    84   ar
   100    12    13    1
   101    81    83   ar
   102    13    14    1
   103    14    16   am
   104    24    22    1
   105    30    31    1
   106    30    29    1
   107    68    70   am
   108    68    69    2
   109    17    18    1
   110    31    25    1
   111    39    38    1
   112    84    85   ar
   113    18    19    1
   114    18    21    1
   115    83    85   ar
   116    22    21    1
   117    22    23    1
   118    25    19   am
   119    25    26    1
   120    19    20    2
   121    29    26    1
   122    26    27    1
   123    38    37    1
   124    37    36    1
   125    36    33    1
   126    35    34    2
   127    27    28    2
   128    34    33    1
   129    33    32    1
