@<TRIPOS>MOLECULE
tmp/1mkaA00.pdb
 90 91 0 0 0
SMALL
GASTEIGER

@<TRIPOS>ATOM
      1  N         -0.5200    5.0250   24.5980 N.3    70  HIS70      -0.1226
      2  CA         0.0330    5.7050   23.4390 C.3    70  HIS70       0.1752
      3  C          0.8810    6.9150   23.8520 C.2    70  HIS70       0.2596
      4  O          0.3760    8.0310   23.8570 O.2    70  HIS70      -0.2718
      5  CB        -1.1410    6.1530   22.5500 C.3    70  HIS70       0.0759
      6  CG        -0.7750    6.3910   21.1180 C.ar   70  HIS70       0.0818
      7  ND1       -1.2020    5.5400   20.1180 N.ar   70  HIS70      -0.2268
      8  CD2       -0.1350    7.4510   20.5610 C.ar   70  HIS70       0.1154
      9  CE1       -0.8230    6.0970   18.9840 C.ar   70  HIS70       0.1986
     10  NE2       -0.1810    7.2500   19.2140 N.ar   70  HIS70      -0.2212
     11  N          2.1360    6.7200   24.2520 N.am   71  PHE71      -0.1976
     12  CA         2.8110    5.4300   24.3660 C.3    71  PHE71       0.1639
     13  C          3.1670    5.2540   25.8470 C.2    71  PHE71       0.2290
     14  O          3.1000    6.2070   26.6250 O.2    71  PHE71      -0.2864
     15  CB         4.1270    5.4430   23.5890 C.3    71  PHE71       0.0560
     16  CG         3.9970    5.8390   22.1370 C.ar   71  PHE71      -0.0200
     17  CD1        4.0440    7.1830   21.7560 C.ar   71  PHE71      -0.0042
     18  CD2        3.9100    4.8640   21.1440 C.ar   71  PHE71      -0.0042
     19  CE1        4.0110    7.5470   20.4060 C.ar   71  PHE71      -0.0003
     20  CE2        3.8770    5.2180   19.7890 C.ar   71  PHE71      -0.0003
     21  CZ         3.9310    6.5630   19.4210 C.ar   71  PHE71      -0.0000
     22  N          0.9120   10.8030   24.5990 N.3    76  VAL76      -0.1231
     23  CA         0.5820   11.8020   23.5890 C.3    76  VAL76       0.1692
     24  C         -0.7200   11.3310   22.9450 C.2    76  VAL76       0.2592
     25  O         -0.8470   10.1640   22.5840 O.2    76  VAL76      -0.2718
     26  CB         1.7150   11.9520   22.5410 C.3    76  VAL76       0.0266
     27  CG1        1.9880   10.6340   21.8300 C.3    76  VAL76       0.0020
     28  CG2        1.3770   13.0480   21.5440 C.3    76  VAL76       0.0020
     29  N         -1.7220   12.2030   22.8850 N.am   77  MET77      -0.1966
     30  CA        -2.9950   11.8120   22.2900 C.3    77  MET77       0.1721
     31  C         -2.8220   11.3580   20.8290 C.2    77  MET77       0.2458
     32  O         -2.1820   12.0560   20.0340 O.2    77  MET77      -0.2730
     33  CB        -3.9910   12.9670   22.3410 C.3    77  MET77       0.0427
     34  CG        -5.3550   12.5870   21.8290 C.3    77  MET77       0.0599
     35  SD        -6.4810   13.9860   21.7640 S.3    77  MET77      -0.1393
     36  CE        -8.0330   13.1840   21.2600 C.3    77  MET77       0.0692
     37  N         -3.3660   10.1750   20.4620 N.am   78  PRO78      -0.2716
     38  CA        -3.2240    9.7160   19.0730 C.3    78  PRO78       0.1536
     39  C         -3.8210   10.7520   18.1100 C.2    78  PRO78       0.2599
     40  O         -4.9380   11.2580   18.3310 O.2    78  PRO78      -0.2715
     41  CB        -4.0390    8.4150   19.0510 C.3    78  PRO78       0.0310
     42  CG        -3.9440    7.9190   20.4690 C.3    78  PRO78       0.0237
     43  CD        -4.1060    9.1870   21.2750 C.3    78  PRO78       0.0939
     44  N         -3.0770   11.0610   17.0520 N.am   79  GLY79      -0.1955
     45  CA        -3.5350   12.0220   16.0570 C.3    79  GLY79       0.1869
     46  C         -4.7850   11.5280   15.3510 C.2    79  GLY79       0.2309
     47  O         -5.6870   12.3180   15.0600 O.2    79  GLY79      -0.2863
     48  N         -0.0730   17.1520   10.9580 N.3   113  PHE113     -0.1227
     49  CA         0.0620   17.2070   12.4140 C.3   113  PHE113      0.1736
     50  C          1.3630   17.9650   12.6570 C.2   113  PHE113      0.2596
     51  O          2.4260   17.4880   12.2630 O.2   113  PHE113     -0.2718
     52  CB         0.2070   15.8110   13.0140 C.3   113  PHE113      0.0547
     53  CG        -0.9740   14.9050   12.7870 C.ar  113  PHE113     -0.0202
     54  CD1       -2.2760   15.3750   12.9210 C.ar  113  PHE113     -0.0042
     55  CD2       -0.7750   13.5560   12.4980 C.ar  113  PHE113     -0.0042
     56  CE1       -3.3610   14.5120   12.7780 C.ar  113  PHE113     -0.0003
     57  CE2       -1.8530   12.6850   12.3510 C.ar  113  PHE113     -0.0003
     58  CZ        -3.1460   13.1590   12.4930 C.ar  113  PHE113     -0.0000
     59  N          1.2830   19.1490   13.2620 N.am  114  THR114     -0.1939
     60  CA         2.4780   19.9500   13.5210 C.3   114  THR114      0.2028
     61  C          2.8030   20.0920   15.0080 C.2   114  THR114      0.2643
     62  O          3.8570   20.6230   15.3770 O.2   114  THR114     -0.2714
     63  CB         2.3800   21.3700   12.8720 C.3   114  THR114      0.1808
     64  OG1        1.2950   22.1030   13.4460 O.3   114  THR114     -0.2208
     65  CG2        2.1610   21.2690   11.3860 C.3   114  THR114      0.0379
     66  N          1.9120   19.5940   15.8570 N.am  115  GLY115     -0.1939
     67  CA         2.1130   19.6700   17.2920 C.3   115  GLY115      0.2014
     68  C          1.4090   18.5020   17.9480 C.2   115  GLY115      0.2638
     69  O          0.6840   17.7670   17.2800 O.2   115  GLY115     -0.2714
     70  N          1.5260   18.3870   19.2610 N.am  116  GLN116     -0.1977
     71  CA         0.9290   17.2740   19.9900 C.3   116  GLN116      0.1601
     72  C          0.0890   17.7170   21.1760 C.2   116  GLN116      0.2287
     73  O          0.1600   18.8710   21.6120 O.2   116  GLN116     -0.2864
     74  CB         2.0540   16.3620   20.4980 C.3   116  GLN116      0.0394
     75  CG         3.0330   17.0770   21.4250 C.3   116  GLN116      0.0908
     76  CD         4.3070   16.2940   21.7070 C.2   116  GLN116      0.2608
     77  OE1        4.4080   15.0980   21.4110 O.2   116  GLN116     -0.2717
     78  NE2        5.2850   16.9620   22.3040 N.am  116  GLN116     -0.0878
     79  N         -3.1950   20.6980   14.2300 N.3   155  TYR155     -0.1241
     80  CA        -3.5310   19.8370   13.0860 C.3   155  TYR155      0.1605
     81  C         -4.4640   20.5770   12.1340 C.2   155  TYR155      0.2264
     82  O         -5.3200   21.3530   12.5680 O.2   155  TYR155     -0.2867
     83  CB        -4.3430   18.5820   13.4610 C.3   155  TYR155      0.0534
     84  CG        -3.9440   17.7030   14.6370 C.ar  155  TYR155     -0.0201
     85  CD1       -2.6600   17.7160   15.1870 C.ar  155  TYR155     -0.0009
     86  CD2       -4.8860   16.8310   15.1880 C.ar  155  TYR155     -0.0009
     87  CE1       -2.3330   16.8770   16.2650 C.ar  155  TYR155      0.0417
     88  CE2       -4.5760   15.9980   16.2500 C.ar  155  TYR155      0.0417
     89  CZ        -3.3080   16.0230   16.7880 C.ar  155  TYR155      0.1957
     90  OH        -3.0590   15.1850   17.8570 O.3   155  TYR155     -0.2866
@<TRIPOS>BOND
     1    48    49    1
     2    65    63    1
     3    81    82    2
     4    81    80    1
     5    51    50    2
     6    57    58   ar
     7    57    55   ar
     8    49    50    1
     9    49    52    1
    10    58    56   ar
    11    55    53   ar
    12    50    59   am
    13    56    54   ar
    14    53    54   ar
    15    53    52    1
    16    63    64    1
    17    63    60    1
    18    80    83    1
    19    80    79    1
    20    59    60    1
    21    83    84    1
    22    60    61    1
    23    84    85   ar
    24    84    86   ar
    25    61    62    2
    26    61    66   am
    27    47    46    2
    28    85    87   ar
    29    86    88   ar
    30    46    45    1
    31    66    67    1
    32    45    44    1
    33    88    89   ar
    34    87    89   ar
    35    89    90    1
    36    44    39   am
    37    69    68    2
    38    67    68    1
    39    68    70   am
    40    39    40    2
    41    39    38    1
    42     9    10   ar
    43     9     7   ar
    44    41    38    1
    45    41    42    1
    46    38    37    1
    47    10     8   ar
    48    70    71    1
    49    21    20   ar
    50    21    19   ar
    51    20    18   ar
    52    71    74    1
    53    71    72    1
    54    32    31    2
    55     7     6   ar
    56    19    17   ar
    57    37    31   am
    58    37    43    1
    59    42    43    1
    60    74    75    1
    61     8     6   ar
    62    31    30    1
    63     6     5    1
    64    18    16   ar
    65    72    73    2
    66    36    35    1
    67    77    76    2
    68    75    76    1
    69    28    26    1
    70    76    78   am
    71    17    16   ar
    72    35    34    1
    73    34    33    1
    74    27    26    1
    75    16    15    1
    76    30    33    1
    77    30    29    1
    78    26    23    1
    79     5     2    1
    80    25    24    2
    81    29    24   am
    82    24    23    1
    83     2     3    1
    84     2     1    1
    85    23    22    1
    86    15    12    1
    87     3     4    2
    88     3    11   am
    89    11    12    1
    90    12    13    1
    91    13    14    2
