@<TRIPOS>MOLECULE
tmp/1mkdC00.pdb
 147 144 0 0 0
SMALL
GASTEIGER

@<TRIPOS>ATOM
      1  N         49.1450   25.7810   41.3240 N.3    74  TYR74      -0.1227
      2  CA        50.5380   25.3510   41.2110 C.3    74  TYR74       0.1736
      3  C         51.3830   26.0440   40.1260 C.2    74  TYR74       0.2595
      4  O         52.4250   26.6290   40.4030 O.2    74  TYR74      -0.2718
      5  CB        50.5710   23.8360   40.9890 C.3    74  TYR74       0.0548
      6  CG        51.9540   23.2340   40.9730 C.ar   74  TYR74      -0.0200
      7  CD1       52.5310   22.7160   42.1350 C.ar   74  TYR74      -0.0009
      8  CD2       52.7000   23.2100   39.7990 C.ar   74  TYR74      -0.0009
      9  CE1       53.8170   22.1900   42.1200 C.ar   74  TYR74       0.0417
     10  CE2       53.9830   22.6900   39.7750 C.ar   74  TYR74       0.0417
     11  CZ        54.5360   22.1820   40.9300 C.ar   74  TYR74       0.1957
     12  OH        55.8060   21.6630   40.8730 O.3    74  TYR74      -0.2866
     13  N         50.9480   25.9670   38.8830 N.am   75  HIS75      -0.1975
     14  CA        51.7050   26.5760   37.8020 C.3    75  HIS75       0.1656
     15  C         51.5420   28.0920   37.7620 C.2    75  HIS75       0.2291
     16  O         50.8730   28.6430   36.8830 O.2    75  HIS75      -0.2864
     17  CB        51.2960   25.9410   36.4680 C.3    75  HIS75       0.0771
     18  CG        51.5800   24.4650   36.3930 C.ar   75  HIS75       0.0820
     19  ND1       50.6400   23.5030   36.6970 N.ar   75  HIS75      -0.2267
     20  CD2       52.7260   23.7920   36.1250 C.ar   75  HIS75       0.1154
     21  CE1       51.1940   22.3060   36.6270 C.ar   75  HIS75       0.1986
     22  NE2       52.4590   22.4520   36.2820 N.ar   75  HIS75      -0.2212
     23  N         56.6620   17.1440   29.7120 N.3   188  MET188     -0.1245
     24  CA        56.7860   15.8210   30.3190 C.3   188  MET188      0.1570
     25  C         56.7950   14.6470   29.3590 C.2   188  MET188      0.2261
     26  O         57.3600   13.6110   29.6760 O.2   188  MET188     -0.2867
     27  CB        55.7010   15.6030   31.3730 C.3   188  MET188      0.0387
     28  CG        56.0510   16.1550   32.7420 C.3   188  MET188      0.0595
     29  SD        57.5650   15.4310   33.4120 S.3   188  MET188     -0.1393
     30  CE        57.0870   13.6230   33.4690 C.3   188  MET188      0.0692
     31  N         62.5430   21.6910   37.5860 N.3   233  ASP233     -0.1225
     32  CA        61.1000   21.7040   37.4220 C.3   233  ASP233      0.1805
     33  C         60.4490   20.5750   38.2030 C.2   233  ASP233      0.2597
     34  O         59.3110   20.6930   38.6410 O.2   233  ASP233     -0.2718
     35  CB        60.7540   21.6150   35.9350 C.3   233  ASP233      0.1424
     36  CG        59.3140   21.9790   35.6410 C.2   233  ASP233      0.3668
     37  OD1       58.7180   22.8370   36.3340 O.co2 233  ASP233     -0.2456
     38  OD2       58.7760   21.4130   34.6800 O.co2 233  ASP233     -0.2456
     39  N         61.1760   19.4820   38.3950 N.am  234  LEU234     -0.1979
     40  CA        60.6430   18.3410   39.1360 C.3   234  LEU234      0.1596
     41  C         61.4120   18.1680   40.4260 C.2   234  LEU234      0.2287
     42  O         61.7290   17.0490   40.8100 O.2   234  LEU234     -0.2864
     43  CB        60.7650   17.0580   38.3100 C.3   234  LEU234      0.0297
     44  CG        59.9900   16.9550   36.9930 C.3   234  LEU234      0.0022
     45  CD1       60.3950   15.6960   36.2590 C.3   234  LEU234      0.0001
     46  CD2       58.5180   16.9470   37.2510 C.3   234  LEU234      0.0001
     47  N         60.3750   19.4490   43.5960 N.3   236  ASN236     -0.1226
     48  CA        59.5850   19.5090   44.8200 C.3   236  ASN236      0.1770
     49  C         59.8150   18.3560   45.7840 C.2   236  ASN236      0.2439
     50  O         60.0750   18.5820   46.9560 O.2   236  ASN236     -0.2733
     51  CB        58.1070   19.6020   44.4790 C.3   236  ASN236      0.1168
     52  CG        57.7760   20.8430   43.6880 C.2   236  ASN236      0.2627
     53  OD1       56.7300   20.9100   43.0490 O.2   236  ASN236     -0.2716
     54  ND2       58.6600   21.8420   43.7370 N.am  236  ASN236     -0.0877
     55  N         59.7350   17.1020   45.3060 N.am  237  PRO237     -0.2729
     56  CA        59.9480   15.9820   46.2250 C.3   237  PRO237      0.1401
     57  C         61.3380   15.9240   46.8350 C.2   237  PRO237      0.2269
     58  O         61.5700   15.1560   47.7680 O.2   237  PRO237     -0.2865
     59  CB        59.6500   14.7570   45.3620 C.3   237  PRO237      0.0296
     60  CG        58.6660   15.2870   44.3410 C.3   237  PRO237      0.0237
     61  CD        59.2880   16.6160   43.9900 C.3   237  PRO237      0.0939
     62  N         57.7780   20.5870   50.2910 N.3   244  TYR244     -0.1241
     63  CA        57.2370   19.5560   49.4180 C.3   244  TYR244      0.1605
     64  C         55.7470   19.3710   49.6120 C.2   244  TYR244      0.2264
     65  O         54.9830   19.3760   48.6530 O.2   244  TYR244     -0.2867
     66  CB        57.9900   18.2410   49.6600 C.3   244  TYR244      0.0534
     67  CG        57.5390   17.0260   48.8590 C.ar  244  TYR244     -0.0201
     68  CD1       56.7550   17.1510   47.7200 C.ar  244  TYR244     -0.0009
     69  CD2       57.9160   15.7390   49.2540 C.ar  244  TYR244     -0.0009
     70  CE1       56.3540   16.0260   46.9980 C.ar  244  TYR244      0.0417
     71  CE2       57.5250   14.6100   48.5440 C.ar  244  TYR244      0.0417
     72  CZ        56.7430   14.7560   47.4160 C.ar  244  TYR244      0.1957
     73  OH        56.3540   13.6410   46.6940 O.3   244  TYR244     -0.2866
     74  N         53.6050   22.0930   48.1340 N.3   247  TRP247     -0.1227
     75  CA        53.5530   21.9490   46.6860 C.3   247  TRP247      0.1737
     76  C         52.5440   20.8660   46.3110 C.2   247  TRP247      0.2596
     77  O         51.7130   21.0670   45.4400 O.2   247  TRP247     -0.2718
     78  CB        54.9370   21.5790   46.1420 C.3   247  TRP247      0.0564
     79  CG        55.9200   22.7290   46.1110 C.ar  247  TRP247      0.0003
     80  CD1       57.1510   22.7720   46.7060 C.ar  247  TRP247      0.0946
     81  CD2       55.7510   23.9900   45.4480 C.ar  247  TRP247      0.0152
     82  NE1       57.7550   23.9820   46.4570 N.ar  247  TRP247     -0.2442
     83  CE2       56.9200   24.7480   45.6880 C.ar  247  TRP247      0.0810
     84  CE3       54.7280   24.5500   44.6760 C.ar  247  TRP247      0.0012
     85  CZ2       57.0940   26.0430   45.1810 C.ar  247  TRP247      0.0191
     86  CZ3       54.8970   25.8360   44.1690 C.ar  247  TRP247      0.0001
     87  CH2       56.0720   26.5690   44.4240 C.ar  247  TRP247      0.0015
     88  N         52.6210   19.7200   46.9810 N.am  248  THR248     -0.1953
     89  CA        51.7080   18.6220   46.7130 C.3   248  THR248      0.1897
     90  C         50.2670   19.0660   46.8880 C.2   248  THR248      0.2313
     91  O         49.3950   18.6770   46.1170 O.2   248  THR248     -0.2863
     92  CB        51.9680   17.4370   47.6440 C.3   248  THR248      0.1794
     93  OG1       53.3110   16.9870   47.4650 O.3   248  THR248     -0.2208
     94  CG2       51.0190   16.2870   47.3420 C.3   248  THR248      0.0378
     95  N         49.4230   21.2840   43.7700 N.3   251  ILE251     -0.1245
     96  CA        49.2730   20.5350   42.5350 C.3   251  ILE251      0.1561
     97  C         47.9830   19.7130   42.5550 C.2   251  ILE251      0.2260
     98  O         47.3210   19.5810   41.5330 O.2   251  ILE251     -0.2867
     99  CB        50.4920   19.6100   42.2790 C.3   251  ILE251      0.0252
    100  CG1       50.4830   19.0940   40.8350 C.3   251  ILE251      0.0019
    101  CG2       50.4610   18.4220   43.2320 C.3   251  ILE251      0.0019
    102  CD1       50.6330   20.1590   39.7840 C.3   251  ILE251      0.0001
    103  N         44.8410   19.9460   39.9960 N.3   255  PHE255     -0.1241
    104  CA        44.4080   18.7680   39.2500 C.3   255  PHE255      0.1605
    105  C         42.9050   18.5620   39.3880 C.2   255  PHE255      0.2264
    106  O         42.2260   18.2570   38.4100 O.2   255  PHE255     -0.2867
    107  CB        45.1100   17.4910   39.7500 C.3   255  PHE255      0.0534
    108  CG        46.5270   17.3020   39.2350 C.ar  255  PHE255     -0.0203
    109  CD1       47.1120   18.2120   38.3560 C.ar  255  PHE255     -0.0042
    110  CD2       47.2780   16.2060   39.6600 C.ar  255  PHE255     -0.0042
    111  CE1       48.4220   18.0380   37.9110 C.ar  255  PHE255     -0.0003
    112  CE2       48.5840   16.0200   39.2230 C.ar  255  PHE255     -0.0003
    113  CZ        49.1590   16.9410   38.3450 C.ar  255  PHE255     -0.0000
    114  N         44.2200   10.8830   38.8410 N.3   272  MET272     -0.1245
    115  CA        44.7050   11.8330   39.8360 C.3   272  MET272      0.1570
    116  C         43.9020   13.1150   39.8970 C.2   272  MET272      0.2261
    117  O         43.9060   13.7960   40.9150 O.2   272  MET272     -0.2867
    118  CB        46.1530   12.2230   39.5560 C.3   272  MET272      0.0387
    119  CG        47.1810   11.1270   39.7290 C.3   272  MET272      0.0595
    120  SD        48.8110   11.8890   39.8900 S.3   272  MET272     -0.1393
    121  CE        48.4650   12.9900   41.3300 C.3   272  MET272      0.0692
    122  N         49.8980    8.5430   45.0160 N.3   283  SER283     -0.1202
    123  CA        50.3070    9.2810   43.8330 C.3   283  SER283      0.2020
    124  C         51.7200    9.8450   43.9660 C.2   283  SER283      0.2618
    125  O         52.5130    9.7920   43.0200 O.2   283  SER283     -0.2717
    126  CB        49.3270   10.4160   43.5530 C.3   283  SER283      0.2103
    127  OG        48.0750    9.8990   43.1610 O.3   283  SER283     -0.2182
    128  N         52.0390   10.3860   45.1360 N.am  284  GLN284     -0.1979
    129  CA        53.3570   10.9410   45.3500 C.3   284  GLN284      0.1601
    130  C         54.4070    9.8540   45.3190 C.2   284  GLN284      0.2287
    131  O         55.4600   10.0240   44.7150 O.2   284  GLN284     -0.2864
    132  CB        53.4170   11.6870   46.6770 C.3   284  GLN284      0.0394
    133  CG        52.6720   12.9930   46.6740 C.3   284  GLN284      0.0908
    134  CD        53.0320   13.8520   45.4760 C.2   284  GLN284      0.2608
    135  OE1       54.2080   14.0680   45.1780 O.2   284  GLN284     -0.2717
    136  NE2       52.0150   14.3490   44.7810 N.am  284  GLN284     -0.0878
    137  N         54.7620    8.9430   41.7500 N.3   287  PHE287     -0.1241
    138  CA        55.4240   10.0260   41.0360 C.3   287  PHE287      0.1605
    139  C         56.9280    9.9670   41.2690 C.2   287  PHE287      0.2264
    140  O         57.7140   10.1390   40.3430 O.2   287  PHE287     -0.2867
    141  CB        54.8720   11.3700   41.5120 C.3   287  PHE287      0.0534
    142  CG        55.4620   12.5650   40.8090 C.ar  287  PHE287     -0.0203
    143  CD1       55.4580   12.6530   39.4120 C.ar  287  PHE287     -0.0042
    144  CD2       56.0080   13.6170   41.5400 C.ar  287  PHE287     -0.0042
    145  CE1       55.9880   13.7710   38.7620 C.ar  287  PHE287     -0.0003
    146  CE2       56.5430   14.7420   40.8900 C.ar  287  PHE287     -0.0003
    147  CZ        56.5310   14.8150   39.5050 C.ar  287  PHE287     -0.0000
@<TRIPOS>BOND
     1    25    26    2
     2    25    24    1
     3    23    24    1
     4    24    27    1
     5    27    28    1
     6    28    29    1
     7    29    30    1
     8    38    36   ar
     9    36    35    1
    10    36    37   ar
    11    35    32    1
    12    20    22   ar
    13    20    18   ar
    14    45    44    1
    15    22    21   ar
    16    18    17    1
    17    18    19   ar
    18    17    14    1
    19    21    19   ar
    20    16    15    2
    21    44    46    1
    22    44    43    1
    23    32    31    1
    24    32    33    1
    25    15    14    1
    26    14    13    1
    27   111   113   ar
    28   111   109   ar
    29    33    39   am
    30    33    34    2
    31    43    40    1
    32   113   112   ar
    33   109   108   ar
    34    39    40    1
    35   106   105    2
    36   145   143   ar
    37   145   147   ar
    38   114   115    1
    39    13     3   am
    40    40    41    1
    41   112   110   ar
    42   108   110   ar
    43   108   107    1
    44   104   105    1
    45   104   107    1
    46   104   103    1
    47   143   142   ar
    48   147   146   ar
    49   118   119    1
    50   118   115    1
    51   119   120    1
    52    10     8   ar
    53    10    11   ar
    54   102   100    1
    55     8     6   ar
    56   115   116    1
    57   120   121    1
    58   116   117    2
    59     3     4    2
    60     3     2    1
    61   140   139    2
    62    41    42    2
    63   142   141    1
    64   142   144   ar
    65   100    99    1
    66    12    11    1
    67   146   144   ar
    68    11     9   ar
    69     6     5    1
    70     6     7   ar
    71     5     2    1
    72   138   139    1
    73   138   141    1
    74   138   137    1
    75     2     1    1
    76    98    97    2
    77     9     7   ar
    78    99    96    1
    79    99   101    1
    80    96    97    1
    81    96    95    1
    82   125   124    2
    83    53    52    2
    84   127   126    1
    85   126   123    1
    86    47    48    1
    87    52    54   am
    88    52    51    1
    89   123   124    1
    90   123   122    1
    91   124   128   am
    92    61    60    1
    93    61    55    1
    94    86    87   ar
    95    86    84   ar
    96    60    59    1
    97    87    85   ar
    98    51    48    1
    99    84    81   ar
   100   131   130    2
   101   136   134   am
   102    48    49    1
   103   128   129    1
   104   135   134    2
   105    85    83   ar
   106    55    49   am
   107    55    56    1
   108   130   129    1
   109   129   132    1
   110    59    56    1
   111    77    76    2
   112    81    83   ar
   113    81    79   ar
   114   134   133    1
   115    83    82   ar
   116    49    50    2
   117    79    78    1
   118    79    80   ar
   119    91    90    2
   120    78    75    1
   121    56    57    1
   122    76    75    1
   123    76    88   am
   124    82    80   ar
   125   133   132    1
   126    75    74    1
   127    73    72    1
   128    89    90    1
   129    89    88    1
   130    89    92    1
   131    57    58    2
   132    70    72   ar
   133    70    68   ar
   134    94    92    1
   135    72    71   ar
   136    93    92    1
   137    68    67   ar
   138    71    69   ar
   139    65    64    2
   140    67    69   ar
   141    67    66    1
   142    63    64    1
   143    63    66    1
   144    63    62    1
