@<TRIPOS>MOLECULE
tmp/1mkjA00.pdb
 125 122 0 0 0
SMALL
GASTEIGER

@<TRIPOS>ATOM
      1  N         68.8770   34.7210   78.2810 N.3    13  ARG13      -0.1231
      2  CA        70.2150   34.6410   77.7120 C.3    13  ARG13       0.1694
      3  C         71.1180   33.6310   78.4110 C.2    13  ARG13       0.2592
      4  O         71.3650   33.7250   79.6150 O.2    13  ARG13      -0.2718
      5  CB        70.8840   36.0120   77.7670 C.3    13  ARG13       0.0321
      6  CG        72.2920   36.0240   77.2130 C.3    13  ARG13       0.0489
      7  CD        72.8870   37.4260   77.2090 C.3    13  ARG13       0.2205
      8  NE        74.0460   37.5160   76.3270 N.pl3  13  ARG13      -0.0865
      9  CZ        74.9140   38.5230   76.3200 C.cat  13  ARG13       0.5346
     10  NH1       74.7680   39.5430   77.1560 N.pl3  13  ARG13       0.1354
     11  NH2       75.9300   38.5130   75.4730 N.pl3  13  ARG13       0.1354
     12  N         71.6100   32.6610   77.6560 N.am   14  PHE14      -0.1962
     13  CA        72.5230   31.6790   78.2090 C.3    14  PHE14       0.1771
     14  C         73.9240   32.1230   77.8490 C.2    14  PHE14       0.2619
     15  O         74.1430   32.7330   76.8110 O.2    14  PHE14      -0.2715
     16  CB        72.2530   30.2980   77.6210 C.3    14  PHE14       0.0574
     17  CG        71.1730   29.5550   78.3270 C.ar   14  PHE14      -0.0200
     18  CD1       71.4650   28.7880   79.4460 C.ar   14  PHE14      -0.0042
     19  CD2       69.8490   29.6670   77.9140 C.ar   14  PHE14      -0.0042
     20  CE1       70.4490   28.1420   80.1490 C.ar   14  PHE14      -0.0003
     21  CE2       68.8290   29.0260   78.6110 C.ar   14  PHE14      -0.0003
     22  CZ        69.1290   28.2630   79.7310 C.ar   14  PHE14      -0.0000
     23  N         74.8760   31.8330   78.7170 N.am   15  ARG15      -0.1964
     24  CA        76.2530   32.2030   78.4520 C.3    15  ARG15       0.1714
     25  C         77.0280   30.9180   78.1860 C.2    15  ARG15       0.2458
     26  O         76.5290   29.8220   78.4410 O.2    15  ARG15      -0.2730
     27  CB        76.8500   32.9190   79.6660 C.3    15  ARG15       0.0347
     28  CG        76.9100   32.0720   80.9330 C.3    15  ARG15       0.0492
     29  CD        77.9410   32.6410   81.8960 C.3    15  ARG15       0.2205
     30  NE        78.0200   31.8990   83.1540 N.pl3  15  ARG15      -0.0865
     31  CZ        78.3720   30.6200   83.2560 C.cat  15  ARG15       0.5346
     32  NH1       78.6880   29.9220   82.1710 N.pl3  15  ARG15       0.1354
     33  NH2       78.3940   30.0370   84.4470 N.pl3  15  ARG15       0.1354
     34  N         78.2380   31.0290   77.6290 N.am   16  PRO16      -0.2727
     35  CA        78.9860   29.7930   77.3900 C.3    16  PRO16       0.1402
     36  C         79.5500   29.3110   78.7250 C.2    16  PRO16       0.2269
     37  O         79.5360   30.0650   79.6940 O.2    16  PRO16      -0.2865
     38  CB        80.0710   30.2340   76.4040 C.3    16  PRO16       0.0296
     39  CG        80.2490   31.6850   76.6990 C.3    16  PRO16       0.0237
     40  CD        78.8390   32.1620   76.9030 C.3    16  PRO16       0.0939
     41  N         82.2770   28.3720   81.5600 N.3    18  ASN18      -0.1240
     42  CA        83.5740   28.9380   81.9200 C.3    18  ASN18       0.1653
     43  C         84.6050   27.8520   82.2250 C.2    18  ASN18       0.2266
     44  O         84.2520   26.6880   82.4340 O.2    18  ASN18      -0.2867
     45  CB        83.4290   29.8670   83.1240 C.3    18  ASN18       0.1155
     46  CG        82.6610   29.2300   84.2550 C.2    18  ASN18       0.2627
     47  OD1       83.0520   28.1860   84.7810 O.2    18  ASN18      -0.2716
     48  ND2       81.5570   29.8520   84.6360 N.am   18  ASN18      -0.0877
     49  N         71.4540   32.3860   72.7130 N.3    52  GLN52      -0.1231
     50  CA        72.3880   31.2930   72.9310 C.3    52  GLN52       0.1698
     51  C         73.7110   31.8620   73.4410 C.2    52  GLN52       0.2592
     52  O         73.9260   33.0750   73.4150 O.2    52  GLN52      -0.2718
     53  CB        72.6430   30.5400   71.6170 C.3    52  GLN52       0.0381
     54  CG        71.4110   29.9470   70.9460 C.3    52  GLN52       0.0905
     55  CD        70.4310   31.0030   70.4510 C.2    52  GLN52       0.2608
     56  OE1       70.8200   31.9660   69.7940 O.2    52  GLN52      -0.2717
     57  NE2       69.1490   30.8140   70.7580 N.am   52  GLN52      -0.0878
     58  N         74.5990   30.9800   73.8880 N.am   53  SER53      -0.1952
     59  CA        75.9090   31.3850   74.3850 C.3    53  SER53       0.1924
     60  C         76.7020   32.1550   73.3360 C.2    53  SER53       0.2314
     61  O         77.5340   33.0010   73.6680 O.2    53  SER53      -0.2863
     62  CB        76.7040   30.1560   74.8070 C.3    53  SER53       0.2116
     63  OG        76.0200   29.4480   75.8200 O.3    53  SER53      -0.2180
     64  N         75.4510   34.2750   71.1180 N.3    55  THR55      -0.1218
     65  CA        74.8580   35.5860   70.8490 C.3    55  THR55       0.1862
     66  C         75.6990   36.7640   71.3610 C.2    55  THR55       0.2287
     67  O         75.9700   36.8900   72.5590 O.2    55  THR55      -0.2866
     68  CB        73.4450   35.6720   71.4570 C.3    55  THR55       0.1770
     69  OG1       72.6090   34.6820   70.8400 O.3    55  THR55      -0.2211
     70  CG2       72.8470   37.0550   71.2400 C.3    55  THR55       0.0375
     71  N         74.2650   34.4300   90.6920 N.3    86  THR86      -0.1203
     72  CA        75.6020   34.9740   90.5310 C.3    86  THR86       0.1994
     73  C         76.3910   34.2110   89.4730 C.2    86  THR86       0.2619
     74  O         76.3860   32.9840   89.4540 O.2    86  THR86      -0.2717
     75  CB        76.3490   34.9120   91.8740 C.3    86  THR86       0.1784
     76  OG1       75.6490   35.7170   92.8270 O.3    86  THR86      -0.2211
     77  CG2       77.7730   35.3990   91.7410 C.3    86  THR86       0.0376
     78  N         77.0540   34.9570   88.5960 N.am   87  SER87      -0.1937
     79  CA        77.8790   34.4080   87.5200 C.3    87  SER87       0.2055
     80  C         77.1210   33.9450   86.2980 C.2    87  SER87       0.2644
     81  O         77.7140   33.3770   85.3780 O.2    87  SER87      -0.2714
     82  CB        78.7400   33.2560   88.0250 C.3    87  SER87       0.2130
     83  OG        79.7470   33.7480   88.8790 O.3    87  SER87      -0.2179
     84  N         75.8130   34.1690   86.2840 N.am   88  SER88      -0.1935
     85  CA        75.0320   33.7640   85.1340 C.3    88  SER88       0.2055
     86  C         75.2940   34.7180   83.9660 C.2    88  SER88       0.2644
     87  O         75.2010   34.3160   82.8080 O.2    88  SER88      -0.2714
     88  CB        73.5490   33.7150   85.4910 C.3    88  SER88       0.2130
     89  OG        73.1680   34.8670   86.2120 O.3    88  SER88      -0.2179
     90  N         75.6270   35.9720   84.2720 N.am   89  GLY89      -0.1939
     91  CA        75.9200   36.9340   83.2280 C.3    89  GLY89       0.2014
     92  C         75.1690   38.2500   83.2500 C.2    89  GLY89       0.2639
     93  O         75.0320   38.8850   82.2070 O.2    89  GLY89      -0.2714
     94  N         74.7090   38.6870   84.4210 N.am   90  LYS90      -0.1963
     95  CA        73.9560   39.9420   84.5170 C.3    90  LYS90       0.1728
     96  C         74.7680   41.1980   84.2180 C.2    90  LYS90       0.2617
     97  O         74.3280   42.0680   83.4690 O.2    90  LYS90      -0.2715
     98  CB        73.3250   40.0870   85.9060 C.3    90  LYS90       0.0311
     99  CG        72.3270   38.9930   86.2680 C.3    90  LYS90       0.0038
    100  CD        71.7670   39.1810   87.6720 C.3    90  LYS90       0.0206
    101  CE        72.8670   39.1500   88.7350 C.3    90  LYS90       0.1093
    102  NZ        73.6040   37.8570   88.8130 N.3    90  LYS90      -0.1314
    103  N         75.9560   41.2990   84.7960 N.am   91  THR91      -0.1937
    104  CA        76.7610   42.4860   84.5900 C.3    91  THR91       0.2028
    105  C         77.3220   42.5230   83.1840 C.2    91  THR91       0.2642
    106  O         77.4160   43.5880   82.5650 O.2    91  THR91      -0.2714
    107  CB        77.8890   42.5670   85.6280 C.3    91  THR91       0.1808
    108  OG1       77.3100   42.5620   86.9360 O.3    91  THR91      -0.2208
    109  CG2       78.6830   43.8480   85.4610 C.3    91  THR91       0.0379
    110  N         77.6840   41.3490   82.6820 N.am   92  HIS92      -0.1973
    111  CA        78.2130   41.2380   81.3380 C.3    92  HIS92       0.1656
    112  C         77.1490   41.7590   80.3830 C.2    92  HIS92       0.2291
    113  O         77.4550   42.4900   79.4450 O.2    92  HIS92      -0.2864
    114  CB        78.5460   39.7830   81.0230 C.3    92  HIS92       0.0771
    115  CG        79.1240   39.5860   79.6610 C.ar   92  HIS92       0.0820
    116  ND1       78.3830   39.1220   78.5960 N.ar   92  HIS92      -0.2267
    117  CD2       80.3540   39.8610   79.1710 C.ar   92  HIS92       0.1154
    118  CE1       79.1300   39.1230   77.5080 C.ar   92  HIS92       0.1986
    119  NE2       80.3310   39.5670   77.8300 N.ar   92  HIS92      -0.2212
    120  N         77.6640   40.8450   94.2300 N.3   201  SER201     -0.1217
    121  CA        76.7750   39.7190   94.0210 C.3   201  SER201      0.1889
    122  C         75.5570   39.8610   94.9150 C.2   201  SER201      0.2288
    123  O         74.4810   39.3990   94.5690 O.2   201  SER201     -0.2866
    124  CB        77.4860   38.4020   94.3090 C.3   201  SER201      0.2089
    125  OG        77.0870   37.8890   95.5630 O.3   201  SER201     -0.2183
@<TRIPOS>BOND
     1    56    55    2
     2    55    57   am
     3    55    54    1
     4    69    68    1
     5    65    64    1
     6    65    66    1
     7    65    68    1
     8    54    53    1
     9    70    68    1
    10    66    67    2
    11    53    50    1
    12    49    50    1
    13    50    51    1
    14    60    61    2
    15    60    59    1
    16    52    51    2
    17    51    58   am
    18    58    59    1
    19    59    62    1
    20    62    63    1
    21    11     9    1
    22     9     8    2
    23     9    10    1
    24     8     7    1
    25    38    39    1
    26    38    35    1
    27    39    40    1
    28    15    14    2
    29    40    34    1
    30     7     6    1
    31     6     5    1
    32    35    34    1
    33    35    36    1
    34   118   119   ar
    35   118   116   ar
    36    16    13    1
    37    16    17    1
    38    34    25   am
    39    12    13    1
    40    12     3   am
    41     2     5    1
    42     2     1    1
    43     2     3    1
    44   119   117   ar
    45    14    13    1
    46    14    23   am
    47    19    17   ar
    48    19    21   ar
    49    25    26    2
    50    25    24    1
    51    17    18   ar
    52     3     4    2
    53    24    23    1
    54    24    27    1
    55   116   115   ar
    56    21    22   ar
    57    36    37    2
    58   117   115   ar
    59   113   112    2
    60    18    20   ar
    61   115   114    1
    62    27    28    1
    63    22    20   ar
    64   112   111    1
    65    28    29    1
    66   114   111    1
    67   111   110    1
    68    41    42    1
    69    29    30    1
    70    42    43    1
    71    42    45    1
    72    32    31    1
    73    93    92    2
    74    43    44    2
    75   106   105    2
    76   110   105   am
    77    87    86    2
    78    45    46    1
    79    30    31    2
    80   105   104    1
    81    91    92    1
    82    91    90    1
    83    92    94   am
    84    31    33    1
    85    97    96    2
    86    86    90   am
    87    86    85    1
    88    96    95    1
    89    96   103   am
    90    46    48   am
    91    46    47    2
    92    94    95    1
    93    95    98    1
    94   104   103    1
    95   104   107    1
    96    85    88    1
    97    85    84    1
    98    81    80    2
    99   109   107    1
   100    88    89    1
   101   107   108    1
   102    98    99    1
   103    99   100    1
   104    84    80   am
   105    80    79    1
   106    79    82    1
   107    79    78    1
   108   100   101    1
   109    82    83    1
   110    78    73   am
   111   101   102    1
   112    74    73    2
   113    73    72    1
   114    72    71    1
   115    72    75    1
   116    77    75    1
   117    75    76    1
   118   121   120    1
   119   121   124    1
   120   121   122    1
   121   124   125    1
   122   123   122    2
