@<TRIPOS>MOLECULE
tmp/1mkpA00.pdb
 91 87 0 0 0
SMALL
GASTEIGER

@<TRIPOS>ATOM
      1  N          8.7710   58.4780   16.3840 N.3    98  VAL98      -0.1231
      2  CA        10.1040   59.0450   16.2010 C.3    98  VAL98       0.1692
      3  C         10.3200   59.4740   14.7510 C.2    98  VAL98       0.2592
      4  O         11.0760   60.3980   14.4860 O.2    98  VAL98      -0.2718
      5  CB        11.2460   58.0810   16.6570 C.3    98  VAL98       0.0266
      6  CG1       11.3380   56.8610   15.7490 C.3    98  VAL98       0.0020
      7  CG2       12.5810   58.8160   16.6710 C.3    98  VAL98       0.0020
      8  N          9.6380   58.8250   13.8150 N.am   99  THR99      -0.1953
      9  CA         9.7680   59.1790   12.4090 C.3    99  THR99       0.1897
     10  C          9.1210   60.5370   12.1690 C.2    99  THR99       0.2313
     11  O          9.6660   61.3710   11.4540 O.2    99  THR99      -0.2863
     12  CB         9.1190   58.1180   11.5040 C.3    99  THR99       0.1794
     13  OG1        9.8880   56.9140   11.5700 O.3    99  THR99      -0.2208
     14  CG2        9.0520   58.5850   10.0570 C.3    99  THR99       0.0378
     15  N         11.4550   63.1090   13.8310 N.3   102  VAL102     -0.1245
     16  CA        12.6430   63.3610   13.0170 C.3   102  VAL102      0.1561
     17  C         12.2810   64.2380   11.8090 C.2   102  VAL102      0.2260
     18  O         12.9990   65.1900   11.4850 O.2   102  VAL102     -0.2867
     19  CB        13.2970   62.0340   12.5370 C.3   102  VAL102      0.0252
     20  CG1       14.3560   62.3070   11.4750 C.3   102  VAL102      0.0019
     21  CG2       13.9350   61.3170   13.7100 C.3   102  VAL102      0.0019
     22  N         18.2400   63.8320    7.6160 N.3   113  MET113     -0.1230
     23  CA        17.6410   62.7830    8.4200 C.3   113  MET113      0.1702
     24  C         18.6070   62.3120    9.5010 C.2   113  MET113      0.2592
     25  O         18.2220   62.1640   10.6580 O.2   113  MET113     -0.2718
     26  CB        17.2620   61.5920    7.5450 C.3   113  MET113      0.0401
     27  CG        16.8290   60.3840    8.3470 C.3   113  MET113      0.0596
     28  SD        16.7750   58.8820    7.3960 S.3   113  MET113     -0.1393
     29  CE        18.5050   58.7050    6.9380 C.3   113  MET113      0.0692
     30  N         19.8590   62.0780    9.1210 N.am  114  ASN114     -0.1974
     31  CA        20.8600   61.6130   10.0730 C.3   114  ASN114      0.1688
     32  C         21.1520   62.5990   11.1890 C.2   114  ASN114      0.2292
     33  O         21.2950   62.2040   12.3450 O.2   114  ASN114     -0.2864
     34  CB        22.1450   61.2290    9.3570 C.3   114  ASN114      0.1181
     35  CG        22.0250   59.9080    8.6350 C.2   114  ASN114      0.2629
     36  OD1       21.2920   59.0190    9.0680 O.2   114  ASN114     -0.2716
     37  ND2       22.7450   59.7690    7.5300 N.am  114  ASN114     -0.0877
     38  N         18.0520   62.7930   13.4620 N.3   117  TYR117     -0.1241
     39  CA        17.9670   61.5880   14.2690 C.3   117  TYR117      0.1605
     40  C         19.0040   61.6220   15.4000 C.2   117  TYR117      0.2264
     41  O         18.7310   61.1620   16.5080 O.2   117  TYR117     -0.2867
     42  CB        18.1410   60.3420   13.3920 C.3   117  TYR117      0.0534
     43  CG        17.9220   59.0450   14.1370 C.ar  117  TYR117     -0.0201
     44  CD1       16.7440   58.8220   14.8650 C.ar  117  TYR117     -0.0009
     45  CD2       18.9060   58.0600   14.1580 C.ar  117  TYR117     -0.0009
     46  CE1       16.5610   57.6500   15.6000 C.ar  117  TYR117      0.0417
     47  CE2       18.7330   56.8840   14.8890 C.ar  117  TYR117      0.0417
     48  CZ        17.5630   56.6870   15.6090 C.ar  117  TYR117      0.1957
     49  OH        17.4150   55.5350   16.3530 O.3   117  TYR117     -0.2866
     50  N         14.2600   52.0420   17.1330 N.3   129  PRO129     -0.2102
     51  CA        13.2060   51.8840   16.1310 C.3   129  PRO129      0.1504
     52  C         13.5720   50.8240   15.0890 C.2   129  PRO129      0.2575
     53  O         14.6830   50.2970   15.1000 O.2   129  PRO129     -0.2718
     54  CB        13.1710   53.2630   15.4930 C.3   129  PRO129      0.0282
     55  CG        14.6260   53.6080   15.4420 C.3   129  PRO129      0.0208
     56  CD        15.1290   53.1900   16.8070 C.3   129  PRO129      0.0893
     57  N         12.6190   50.4680   14.2370 N.am  130  ASN130     -0.1975
     58  CA        12.9060   49.5130   13.1730 C.3   130  ASN130      0.1688
     59  C         13.3380   50.3780   11.9880 C.2   130  ASN130      0.2292
     60  O         13.4090   51.6020   12.1250 O.2   130  ASN130     -0.2864
     61  CB        11.6890   48.6260   12.8450 C.3   130  ASN130      0.1181
     62  CG        10.4540   49.4190   12.4640 C.2   130  ASN130      0.2629
     63  OD1       10.4890   50.2760   11.5790 O.2   130  ASN130     -0.2716
     64  ND2        9.3410   49.1160   13.1220 N.am  130  ASN130     -0.0877
     65  N         11.0160   53.0900    8.0730 N.3   133  PHE133     -0.1227
     66  CA        10.8430   54.4570    7.6010 C.3   133  PHE133      0.1736
     67  C         12.0850   55.1750    7.0920 C.2   133  PHE133      0.2595
     68  O         12.0220   56.3580    6.7600 O.2   133  PHE133     -0.2718
     69  CB        10.1190   55.2790    8.6630 C.3   133  PHE133      0.0547
     70  CG         8.8470   54.6420    9.1330 C.ar  133  PHE133     -0.0202
     71  CD1        7.6490   54.8690    8.4600 C.ar  133  PHE133     -0.0042
     72  CD2        8.8570   53.7490   10.2050 C.ar  133  PHE133     -0.0042
     73  CE1        6.4730   54.2090    8.8420 C.ar  133  PHE133     -0.0003
     74  CE2        7.6920   53.0820   10.5980 C.ar  133  PHE133     -0.0003
     75  CZ         6.4960   53.3110    9.9140 C.ar  133  PHE133     -0.0000
     76  N         13.2020   54.4590    6.9830 N.am  134  MET134     -0.1979
     77  CA        14.4300   55.0600    6.4610 C.3   134  MET134      0.1605
     78  C         14.1930   55.6120    5.0550 C.2   134  MET134      0.2287
     79  O         14.5370   56.7510    4.7690 O.2   134  MET134     -0.2864
     80  CB        15.5620   54.0370    6.3870 C.3   134  MET134      0.0413
     81  CG        16.0810   53.5500    7.7080 C.3   134  MET134      0.0598
     82  SD        17.4840   52.4540    7.4280 S.3   134  MET134     -0.1393
     83  CE        18.2090   52.4040    9.0890 C.3   134  MET134      0.0692
     84  N         12.0580   58.8280    5.0610 N.3   137  LEU137     -0.1245
     85  CA        12.7510   59.9710    5.6380 C.3   137  LEU137      0.1561
     86  C         13.8390   60.4580    4.6960 C.2   137  LEU137      0.2260
     87  O         14.0280   61.6600    4.5370 O.2   137  LEU137     -0.2867
     88  CB        13.3280   59.6300    7.0090 C.3   137  LEU137      0.0270
     89  CG        12.2960   59.6550    8.1400 C.3   137  LEU137      0.0019
     90  CD1       12.9230   59.1570    9.4010 C.3   137  LEU137      0.0001
     91  CD2       11.7680   61.0590    8.3420 C.3   137  LEU137      0.0001
@<TRIPOS>BOND
     1    87    86    2
     2    86    85    1
     3    79    78    2
     4    78    77    1
     5    84    85    1
     6    85    88    1
     7    80    77    1
     8    80    81    1
     9    77    76    1
    10    68    67    2
    11    29    28    1
    12    76    67   am
    13    88    89    1
    14    67    66    1
    15    28    27    1
    16    82    81    1
    17    82    83    1
    18    37    35   am
    19    26    27    1
    20    26    23    1
    21    66    65    1
    22    66    69    1
    23    22    23    1
    24    89    91    1
    25    89    90    1
    26    23    24    1
    27    71    73   ar
    28    71    70   ar
    29    35    36    2
    30    35    34    1
    31    69    70    1
    32    73    75   ar
    33    30    24   am
    34    30    31    1
    35    70    72   ar
    36    34    31    1
    37    24    25    2
    38    75    74   ar
    39    14    12    1
    40    31    32    1
    41    72    74   ar
    42    32    33    2
    43    11    10    2
    44    20    19    1
    45    18    17    2
    46    12    13    1
    47    12     9    1
    48    63    62    2
    49    17    16    1
    50    59    60    2
    51    59    58    1
    52    10     9    1
    53     9     8    1
    54    62    61    1
    55    62    64   am
    56    19    16    1
    57    19    21    1
    58    61    58    1
    59    16    15    1
    60    58    57    1
    61    42    43    1
    62    42    39    1
    63    38    39    1
    64     8     3   am
    65    43    45   ar
    66    43    44   ar
    67    45    47   ar
    68    57    52   am
    69    39    40    1
    70     4     3    2
    71     3     2    1
    72    44    46   ar
    73    47    48   ar
    74    52    53    2
    75    52    51    1
    76    40    41    2
    77    55    54    1
    78    55    56    1
    79    54    51    1
    80    46    48   ar
    81    48    49    1
    82     6     5    1
    83    51    50    1
    84     2     1    1
    85     2     5    1
    86     5     7    1
    87    56    50    1
