@<TRIPOS>MOLECULE
tmp/1mkvA00.pdb
 194 193 0 0 0
SMALL
GASTEIGER

@<TRIPOS>ATOM
      1  N         33.5830    2.6670   75.0350 N.3     2  LEU2       -0.1231
      2  CA        33.1710    1.7380   73.9840 C.3     2  LEU2        0.1693
      3  C         32.6790    0.3830   74.4860 C.2     2  LEU2        0.2592
      4  O         31.7850   -0.2270   73.8890 O.2     2  LEU2       -0.2718
      5  CB        34.3150    1.5320   72.9960 C.3     2  LEU2        0.0284
      6  CG        34.3080    2.2950   71.6700 C.3     2  LEU2        0.0019
      7  CD1       33.8640    3.7480   71.8340 C.3     2  LEU2        0.0001
      8  CD2       35.7100    2.2130   71.0890 C.3     2  LEU2        0.0001
      9  N         33.2780   -0.1160   75.5590 N.am    3  TRP3       -0.1976
     10  CA        32.8430   -1.3950   76.0600 C.3     3  TRP3        0.1640
     11  C         31.4700   -1.3410   76.7490 C.2     3  TRP3        0.2290
     12  O         30.8290   -2.3770   76.9160 O.2     3  TRP3       -0.2864
     13  CB        33.9430   -2.0630   76.8920 C.3     3  TRP3        0.0576
     14  CG        35.2020   -2.5620   76.0750 C.ar    3  TRP3        0.0006
     15  CD1       36.3370   -3.1250   76.6140 C.ar    3  TRP3        0.0946
     16  CD2       35.4530   -2.4870   74.6350 C.ar    3  TRP3        0.0152
     17  NE1       37.2700   -3.3930   75.6240 N.ar    3  TRP3       -0.2442
     18  CE2       36.7590   -3.0090   74.4090 C.ar    3  TRP3        0.0810
     19  CE3       34.7160   -2.0290   73.5310 C.ar    3  TRP3        0.0012
     20  CZ2       37.3390   -3.0800   73.1370 C.ar    3  TRP3        0.0191
     21  CZ3       35.3040   -2.0960   72.2540 C.ar    3  TRP3        0.0001
     22  CH2       36.5970   -2.6210   72.0770 C.ar    3  TRP3        0.0015
     23  N         29.1890    0.7190   75.4590 N.3     5  PHE5       -0.1227
     24  CA        28.4040    0.8650   74.2390 C.3     5  PHE5        0.1736
     25  C         28.1740   -0.5230   73.6510 C.2     5  PHE5        0.2595
     26  O         27.0820   -0.8390   73.1960 O.2     5  PHE5       -0.2718
     27  CB        29.1480    1.7550   73.2280 C.3     5  PHE5        0.0547
     28  CG        28.3190    2.1580   72.0130 C.ar    5  PHE5       -0.0202
     29  CD1       26.9260    2.2150   72.0710 C.ar    5  PHE5       -0.0042
     30  CD2       28.9500    2.4860   70.8040 C.ar    5  PHE5       -0.0042
     31  CE1       26.1850    2.5860   70.9490 C.ar    5  PHE5       -0.0003
     32  CE2       28.2070    2.8600   69.6750 C.ar    5  PHE5       -0.0003
     33  CZ        26.8290    2.9080   69.7480 C.ar    5  PHE5       -0.0000
     34  N         29.2000   -1.3600   73.6550 N.am    6  ASN6       -0.1974
     35  CA        29.0600   -2.7190   73.1410 C.3     6  ASN6        0.1688
     36  C         27.9590   -3.4690   73.9040 C.2     6  ASN6        0.2292
     37  O         27.0780   -4.1120   73.3110 O.2     6  ASN6       -0.2864
     38  CB        30.3890   -3.4720   73.2950 C.3     6  ASN6        0.1181
     39  CG        30.3530   -4.8610   72.6750 C.2     6  ASN6        0.2629
     40  OD1       30.3160   -5.0040   71.4570 O.2     6  ASN6       -0.2716
     41  ND2       30.3640   -5.8860   73.5100 N.am    6  ASN6       -0.0877
     42  N         24.3070   -2.2610   73.0900 N.3     9  ILE9       -0.1245
     43  CA        23.7660   -2.7650   71.8310 C.3     9  ILE9        0.1561
     44  C         23.3770   -4.2380   71.9930 C.2     9  ILE9        0.2260
     45  O         22.3330   -4.6690   71.4870 O.2     9  ILE9       -0.2867
     46  CB        24.7500   -2.6040   70.6590 C.3     9  ILE9        0.0252
     47  CG1       25.1710   -1.1310   70.5200 C.3     9  ILE9        0.0019
     48  CG2       24.1020   -3.1190   69.3750 C.3     9  ILE9        0.0019
     49  CD1       26.3760   -0.9640   69.6200 C.3     9  ILE9        0.0001
     50  N         28.2700   -6.6030   68.4080 N.3    18  PRO18      -0.2102
     51  CA        28.3720   -5.2050   67.9280 C.3    18  PRO18       0.1504
     52  C         29.6670   -4.7410   67.2630 C.2    18  PRO18       0.2575
     53  O         29.6560   -4.1020   66.2170 O.2    18  PRO18      -0.2718
     54  CB        28.0720   -4.3910   69.1920 C.3    18  PRO18       0.0282
     55  CG        27.1090   -5.2730   69.9350 C.3    18  PRO18       0.0208
     56  CD        27.7550   -6.6250   69.8020 C.3    18  PRO18       0.0893
     57  N         30.7820   -5.0270   67.8920 N.am   19  LEU19      -0.1980
     58  CA        32.0460   -4.6120   67.3480 C.3    19  LEU19       0.1596
     59  C         32.2570   -5.2640   65.9840 C.2    19  LEU19       0.2287
     60  O         32.8820   -4.6830   65.1180 O.2    19  LEU19      -0.2864
     61  CB        33.1410   -4.9740   68.3260 C.3    19  LEU19       0.0297
     62  CG        34.4110   -4.1510   68.2970 C.3    19  LEU19       0.0022
     63  CD1       35.0920   -4.3440   69.6360 C.3    19  LEU19       0.0001
     64  CD2       35.3210   -4.5830   67.1520 C.3    19  LEU19       0.0001
     65  N         28.5320   -4.0170   63.6530 N.3    22  PHE22      -0.1227
     66  CA        28.3520   -2.5970   63.3680 C.3    22  PHE22       0.1736
     67  C         29.5510   -1.7380   63.0250 C.2    22  PHE22       0.2595
     68  O         29.3890   -0.6170   62.5400 O.2    22  PHE22      -0.2718
     69  CB        27.5460   -1.9420   64.4870 C.3    22  PHE22       0.0547
     70  CG        26.1730   -2.5120   64.6320 C.ar   22  PHE22      -0.0202
     71  CD1       25.1560   -2.1240   63.7820 C.ar   22  PHE22      -0.0042
     72  CD2       25.9090   -3.4830   65.5950 C.ar   22  PHE22      -0.0042
     73  CE1       23.8920   -2.6870   63.8790 C.ar   22  PHE22      -0.0003
     74  CE2       24.6510   -4.0500   65.6970 C.ar   22  PHE22      -0.0003
     75  CZ        23.6390   -3.6520   64.8330 C.ar   22  PHE22      -0.0000
     76  N         30.7520   -2.2360   63.2790 N.am   23  ASN23      -0.1974
     77  CA        31.9340   -1.4680   62.9510 C.3    23  ASN23       0.1688
     78  C         32.1260   -1.5060   61.4300 C.2    23  ASN23       0.2292
     79  O         31.8110   -2.5020   60.7860 O.2    23  ASN23      -0.2864
     80  CB        33.1480   -2.0460   63.6640 C.3    23  ASN23       0.1181
     81  CG        34.3630   -1.1630   63.5450 C.2    23  ASN23       0.2629
     82  OD1       35.4690   -1.6370   63.2600 O.2    23  ASN23      -0.2716
     83  ND2       34.1760    0.1340   63.7680 N.am   23  ASN23      -0.0877
     84  N         29.3870    6.2900   58.3560 N.3    28  TYR28      -0.1227
     85  CA        29.4990    6.7810   59.7370 C.3    28  TYR28       0.1736
     86  C         29.7560    5.7890   60.8780 C.2    28  TYR28       0.2596
     87  O         30.2750    6.1930   61.9520 O.2    28  TYR28      -0.2718
     88  CB        28.2500    7.6050   60.0720 C.3    28  TYR28       0.0548
     89  CG        28.2130    8.9460   59.3870 C.ar   28  TYR28      -0.0200
     90  CD1       27.7120    9.0870   58.0960 C.ar   28  TYR28      -0.0009
     91  CD2       28.7360   10.0620   60.0140 C.ar   28  TYR28      -0.0009
     92  CE1       27.7480   10.3080   57.4520 C.ar   28  TYR28       0.0417
     93  CE2       28.7810   11.2800   59.3840 C.ar   28  TYR28       0.0417
     94  CZ        28.2880   11.4010   58.1070 C.ar   28  TYR28       0.1957
     95  OH        28.3910   12.6260   57.4920 O.3    28  TYR28      -0.2866
     96  N         29.3490    4.5330   60.6790 N.am   29  CYS29      -0.1956
     97  CA        29.5200    3.4860   61.6870 C.3    29  CYS29       0.1843
     98  C         30.9580    3.0320   61.7420 C.2    29  CYS29       0.2626
     99  O         31.4070    2.2270   60.9370 O.2    29  CYS29      -0.2714
    100  CB        28.5880    2.3140   61.4170 C.3    29  CYS29       0.0997
    101  SG        26.8350    2.7710   61.3120 S.3    29  CYS29      -0.0797
    102  N         31.6730    3.5500   62.7280 N.am   30  GLY30      -0.1940
    103  CA        33.0710    3.2470   62.8940 C.3    30  GLY30       0.2014
    104  C         33.7170    4.5320   63.3270 C.2    30  GLY30       0.2639
    105  O         33.0300    5.5460   63.5030 O.2    30  GLY30      -0.2714
    106  N         35.0270    4.5160   63.4880 N.am   31  LEU31      -0.1963
    107  CA        35.7520    5.7050   63.9000 C.3    31  LEU31       0.1728
    108  C         35.5720    6.7810   62.8530 C.2    31  LEU31       0.2616
    109  O         35.7810    6.5330   61.6810 O.2    31  LEU31      -0.2715
    110  CB        37.2360    5.4010   64.0470 C.3    31  LEU31       0.0311
    111  CG        37.8740    6.2440   65.1470 C.3    31  LEU31       0.0022
    112  CD1       38.1750    5.3310   66.3240 C.3    31  LEU31       0.0001
    113  CD2       39.1360    6.9360   64.6300 C.3    31  LEU31       0.0001
    114  N         35.2370    7.9900   63.2790 N.am   32  GLY32      -0.1955
    115  CA        35.0020    9.0530   62.3190 C.3    32  GLY32       0.1869
    116  C         33.6960    8.8900   61.5380 C.2    32  GLY32       0.2309
    117  O         32.7060    8.2720   62.0260 O.2    32  GLY32      -0.2863
    118  N         24.2690    6.2000   63.2740 N.3    45  CYS45      -0.1235
    119  CA        25.6910    6.4430   63.5730 C.3    45  CYS45       0.1677
    120  C         26.0630    7.9180   63.3890 C.2    45  CYS45       0.2270
    121  O         26.8900    8.4620   64.1410 O.2    45  CYS45      -0.2867
    122  CB        26.6030    5.5650   62.6860 C.3    45  CYS45       0.0956
    123  SG        26.4650    3.7910   63.0280 S.3    45  CYS45      -0.0801
    124  N         24.7500    9.6670   66.4080 N.3    48  HIS48      -0.1226
    125  CA        25.6090    9.2610   67.5120 C.3    48  HIS48       0.1752
    126  C         26.9400   10.0230   67.4770 C.2    48  HIS48       0.2596
    127  O         27.4340   10.4680   68.5290 O.2    48  HIS48      -0.2718
    128  CB        25.8550    7.7400   67.4570 C.3    48  HIS48       0.0759
    129  CG        26.6330    7.2170   68.6230 C.ar   48  HIS48       0.0818
    130  ND1       27.8130    6.5200   68.4610 N.ar   48  HIS48      -0.2268
    131  CD2       26.4080    7.2730   69.9550 C.ar   48  HIS48       0.1154
    132  CE1       28.2810    6.1710   69.6510 C.ar   48  HIS48       0.1986
    133  NE2       27.4460    6.6150   70.5760 N.ar   48  HIS48      -0.2212
    134  N         27.5190   10.1630   66.2800 N.am   49  ASP49      -0.1974
    135  CA        28.7750   10.8900   66.1040 C.3    49  ASP49       0.1709
    136  C         28.5230   12.3580   66.4540 C.2    49  ASP49       0.2293
    137  O         29.3510   13.0060   67.1040 O.2    49  ASP49      -0.2864
    138  CB        29.2540   10.8000   64.6560 C.3    49  ASP49       0.1436
    139  CG        29.8400    9.4320   64.2970 C.2    49  ASP49       0.3671
    140  OD1       29.7820    8.4940   65.1160 O.co2  49  ASP49      -0.2456
    141  OD2       30.3830    9.2990   63.1720 O.co2  49  ASP49      -0.2456
    142  N         28.4040   12.7480   70.2700 N.3    52  TYR52      -0.1227
    143  CA        29.7410   12.7870   70.8580 C.3    52  TYR52       0.1736
    144  C         30.3770   14.1510   70.6120 C.2    52  TYR52       0.2595
    145  O         31.1180   14.6250   71.4590 O.2    52  TYR52      -0.2718
    146  CB        30.6530   11.7230   70.2750 C.3    52  TYR52       0.0548
    147  CG        30.5870   10.3740   70.9420 C.ar   52  TYR52      -0.0200
    148  CD1       29.4920    9.9980   71.7160 C.ar   52  TYR52      -0.0009
    149  CD2       31.6100    9.4420   70.7500 C.ar   52  TYR52      -0.0009
    150  CE1       29.4220    8.7150   72.2810 C.ar   52  TYR52       0.0417
    151  CE2       31.5470    8.1630   71.3060 C.ar   52  TYR52       0.0417
    152  CZ        30.4530    7.8030   72.0630 C.ar   52  TYR52       0.1957
    153  OH        30.3690    6.5050   72.5430 O.3    52  TYR52      -0.2866
    154  N         30.1370   14.7620   69.4510 N.am   53  LYS53      -0.1980
    155  CA        30.6940   16.0940   69.1700 C.3    53  LYS53       0.1596
    156  C         30.1150   17.1290   70.1220 C.2    53  LYS53       0.2287
    157  O         30.8090   18.0530   70.5170 O.2    53  LYS53      -0.2864
    158  CB        30.4430   16.5210   67.7320 C.3    53  LYS53       0.0298
    159  CG        31.4750   16.0190   66.7790 C.3    53  LYS53       0.0038
    160  CD        31.0620   16.3030   65.3400 C.3    53  LYS53       0.0206
    161  CE        31.6350   15.2690   64.3790 C.3    53  LYS53       0.1093
    162  NZ        31.0650   15.4260   63.0170 N.3    53  LYS53      -0.1314
    163  N         31.7450   16.9100   73.6750 N.3    56  LYS56      -0.1245
    164  CA        33.0720   17.5520   73.7510 C.3    56  LYS56       0.1561
    165  C         33.0300   19.0680   73.9700 C.2    56  LYS56       0.2260
    166  O         34.0240   19.6670   74.3820 O.2    56  LYS56      -0.2867
    167  CB        33.9080   17.2320   72.4960 C.3    56  LYS56       0.0271
    168  CG        34.0610   15.6960   72.1500 C.3    56  LYS56       0.0035
    169  CD        34.7500   15.5080   70.7710 C.3    56  LYS56       0.0206
    170  CE        35.3600   14.1090   70.5940 C.3    56  LYS56       0.1093
    171  NZ        34.3470   13.0500   70.3050 N.3    56  LYS56      -0.1314
    172  N         35.4010    7.6500   74.1550 N.3    69  TYR69      -0.1241
    173  CA        35.7110    6.2460   73.8980 C.3    69  TYR69       0.1605
    174  C         36.2720    5.5250   75.1190 C.2    69  TYR69       0.2264
    175  O         35.9990    4.3440   75.3120 O.2    69  TYR69      -0.2867
    176  CB        36.6780    6.1040   72.7070 C.3    69  TYR69       0.0534
    177  CG        36.3200    7.1160   71.6180 C.ar   69  TYR69      -0.0201
    178  CD1       35.2550    6.8560   70.7470 C.ar   69  TYR69      -0.0009
    179  CD2       37.0410    8.3090   71.5060 C.ar   69  TYR69      -0.0009
    180  CE1       34.8950    7.8020   69.7810 C.ar   69  TYR69       0.0417
    181  CE2       36.6760    9.2580   70.5450 C.ar   69  TYR69       0.0417
    182  CZ        35.5990    9.0080   69.6870 C.ar   69  TYR69       0.1957
    183  OH        35.2280    9.9450   68.7740 O.3    69  TYR69      -0.2866
    184  N         19.8390    1.5170   66.5280 N.3   106  PHE106     -0.1241
    185  CA        20.3410    0.3230   65.8300 C.3   106  PHE106      0.1605
    186  C         19.2810   -0.7770   65.8270 C.2   106  PHE106      0.2264
    187  O         18.9940   -1.3980   64.7940 O.2   106  PHE106     -0.2867
    188  CB        21.6140   -0.2550   66.4890 C.3   106  PHE106      0.0534
    189  CG        22.8710    0.5870   66.3160 C.ar  106  PHE106     -0.0203
    190  CD1       22.8330    1.8530   65.7570 C.ar  106  PHE106     -0.0042
    191  CD2       24.0920    0.1070   66.7580 C.ar  106  PHE106     -0.0042
    192  CE1       23.9990    2.6200   65.6490 C.ar  106  PHE106     -0.0003
    193  CE2       25.2500    0.8660   66.6510 C.ar  106  PHE106     -0.0003
    194  CZ        25.2000    2.1230   66.0960 C.ar  106  PHE106     -0.0000
@<TRIPOS>BOND
     1    92    90   ar
     2    92    94   ar
     3    95    94    1
     4    90    89   ar
     5    94    93   ar
     6    84    85    1
     7    93    91   ar
     8    89    91   ar
     9    89    88    1
    10    85    88    1
    11    85    86    1
    12    96    86   am
    13    96    97    1
    14    79    78    2
    15    86    87    2
    16    99    98    2
    17   101   100    1
    18   101   123    1
    19   100    97    1
    20    78    77    1
    21   116   117    2
    22   116   115    1
    23   109   108    2
    24    97    98    1
    25    98   102   am
    26   115   114    1
    27    68    67    2
    28   122   123    1
    29   122   119    1
    30   102   103    1
    31   108   114   am
    32   108   107    1
    33   103   104    1
    34    77    76    1
    35    77    80    1
    36   162   161    1
    37    67    76   am
    38    67    66    1
    39   141   139   ar
    40    82    81    2
    41   118   119    1
    42   104   106   am
    43   104   105    2
    44    66    65    1
    45    66    69    1
    46   120   119    1
    47   120   121    2
    48   106   107    1
    49    81    80    1
    50    81    83   am
    51    71    73   ar
    52    71    70   ar
    53    73    75   ar
    54   107   110    1
    55   110   111    1
    56   139   138    1
    57   139   140   ar
    58   161   160    1
    59    69    70    1
    60   113   111    1
    61    70    72   ar
    62   138   135    1
    63   187   186    2
    64    75    74   ar
    65    60    59    2
    66   111   112    1
    67   160   159    1
    68    72    74   ar
    69   192   190   ar
    70   192   194   ar
    71   190   189   ar
    72   186   185    1
    73   185   188    1
    74   185   184    1
    75    59    58    1
    76   194   193   ar
    77   135   134    1
    78   135   136    1
    79    53    52    2
    80   134   126   am
    81   189   188    1
    82   189   191   ar
    83   124   125    1
    84   136   137    2
    85   193   191   ar
    86   159   158    1
    87    64    62    1
    88    52    57   am
    89    52    51    1
    90    58    57    1
    91    58    61    1
    92   128   125    1
    93   128   129    1
    94   126   125    1
    95   126   127    2
    96   158   155    1
    97    51    50    1
    98    51    54    1
    99    62    61    1
   100    62    63    1
   101    50    56    1
   102   130   129   ar
   103   130   132   ar
   104   129   131   ar
   105   183   182    1
   106   155   154    1
   107   155   156    1
   108    54    55    1
   109    48    46    1
   110   154   144   am
   111    49    47    1
   112   132   133   ar
   113    32    33   ar
   114    32    30   ar
   115   182   180   ar
   116   182   181   ar
   117    33    31   ar
   118   180   178   ar
   119    56    55    1
   120   131   133   ar
   121   156   157    2
   122   142   143    1
   123   146   143    1
   124   146   147    1
   125   171   170    1
   126    47    46    1
   127   181   179   ar
   128   170   169    1
   129   144   143    1
   130   144   145    2
   131    46    43    1
   132   178   177   ar
   133   149   147   ar
   134   149   151   ar
   135   169   168    1
   136    30    28   ar
   137   147   148   ar
   138    31    29   ar
   139     8     6    1
   140   151   152   ar
   141    40    39    2
   142    45    44    2
   143   179   177   ar
   144   177   176    1
   145     6     7    1
   146     6     5    1
   147   148   150   ar
   148    43    44    1
   149    43    42    1
   150    28    29   ar
   151    28    27    1
   152   152   150   ar
   153   152   153    1
   154    22    21   ar
   155    22    20   ar
   156   168   167    1
   157    21    19   ar
   158   167   164    1
   159    39    38    1
   160    39    41   am
   161   176   173    1
   162     5     2    1
   163    20    18   ar
   164    35    38    1
   165    35    34    1
   166    35    36    1
   167    26    25    2
   168    27    24    1
   169    37    36    2
   170    19    16   ar
   171    25    34   am
   172    25    24    1
   173   163   164    1
   174   164   165    1
   175     4     3    2
   176   173   172    1
   177   173   174    1
   178   165   166    2
   179     2     3    1
   180     2     1    1
   181    24    23    1
   182    18    16   ar
   183    18    17   ar
   184     3     9   am
   185    16    14   ar
   186   174   175    2
   187     9    10    1
   188    17    15   ar
   189    10    11    1
   190    10    13    1
   191    14    15   ar
   192    14    13    1
   193    11    12    2
