@<TRIPOS>MOLECULE
tmp/1mkyA00.pdb
 112 108 0 0 0
SMALL
GASTEIGER

@<TRIPOS>ATOM
      1  N         28.3340   34.6390   88.4820 N.3   171  PRO171     -0.2102
      2  CA        27.7600   33.7370   89.4820 C.3   171  PRO171      0.1504
      3  C         26.2450   33.6500   89.3760 C.2   171  PRO171      0.2576
      4  O         25.5830   34.6320   89.0540 O.2   171  PRO171     -0.2718
      5  CB        28.2050   34.3670   90.7990 C.3   171  PRO171      0.0282
      6  CG        29.5600   34.9030   90.4590 C.3   171  PRO171      0.0208
      7  CD        29.2970   35.5670   89.1050 C.3   171  PRO171      0.0893
      8  N         25.7100   32.4590   89.6200 N.am  172  ASN172     -0.1961
      9  CA        24.2690   32.2260   89.6110 C.3   172  ASN172      0.1819
     10  C         23.5560   32.2020   88.2720 C.2   172  ASN172      0.2621
     11  O         22.3250   32.1910   88.2390 O.2   172  ASN172     -0.2715
     12  CB        23.5690   33.2570   90.5050 C.3   172  ASN172      0.1195
     13  CG        22.5750   32.6220   91.4410 C.2   172  ASN172      0.2630
     14  OD1       22.9610   31.9080   92.3740 O.2   172  ASN172     -0.2716
     15  ND2       21.2830   32.8630   91.2010 N.am  172  ASN172     -0.0877
     16  N         24.2930   32.2030   87.1660 N.am  173  VAL173     -0.1963
     17  CA        23.6190   32.1740   85.8770 C.3   173  VAL173      0.1727
     18  C         23.1550   30.7590   85.5320 C.2   173  VAL173      0.2617
     19  O         22.2750   30.5790   84.6870 O.2   173  VAL173     -0.2715
     20  CB        24.5170   32.7260   84.7380 C.3   173  VAL173      0.0290
     21  CG1       24.8160   34.2020   84.9860 C.3   173  VAL173      0.0023
     22  CG2       25.8110   31.9320   84.6430 C.3   173  VAL173      0.0023
     23  N         23.7350   29.7660   86.2050 N.am  174  GLY174     -0.1940
     24  CA        23.3570   28.3800   85.9680 C.3   174  GLY174      0.2014
     25  C         24.4370   27.4840   85.3740 C.2   174  GLY174      0.2639
     26  O         24.1260   26.4460   84.7780 O.2   174  GLY174     -0.2714
     27  N         25.6980   27.8670   85.5430 N.am  175  LYS175     -0.1963
     28  CA        26.8120   27.0920   85.0020 C.3   175  LYS175      0.1728
     29  C         26.8450   25.6760   85.5590 C.2   175  LYS175      0.2617
     30  O         26.9140   24.6970   84.8120 O.2   175  LYS175     -0.2715
     31  CB        28.1350   27.7920   85.3070 C.3   175  LYS175      0.0311
     32  CG        28.2500   29.1920   84.7010 C.3   175  LYS175      0.0038
     33  CD        29.6360   29.7880   84.8990 C.3   175  LYS175      0.0206
     34  CE        29.9790   29.9870   86.3780 C.3   175  LYS175      0.1093
     35  NZ        28.9320   30.7790   87.0780 N.3   175  LYS175     -0.1314
     36  N         26.8060   25.5730   86.8830 N.am  176  SER176     -0.1936
     37  CA        26.8320   24.2740   87.5340 C.3   176  SER176      0.2055
     38  C         25.6380   23.4240   87.1120 C.2   176  SER176      0.2643
     39  O         25.7950   22.2380   86.8100 O.2   176  SER176     -0.2714
     40  CB        26.8370   24.4500   89.0610 C.3   176  SER176      0.2130
     41  OG        26.8730   23.1790   89.6890 O.3   176  SER176     -0.2179
     42  N         24.4500   24.0240   87.0750 N.am  177  THR177     -0.1950
     43  CA        23.2490   23.2850   86.6970 C.3   177  THR177      0.1897
     44  C         23.3230   22.7810   85.2520 C.2   177  THR177      0.2313
     45  O         22.8920   21.6700   84.9470 O.2   177  THR177     -0.2863
     46  CB        21.9690   24.1510   86.8700 C.3   177  THR177      0.1794
     47  OG1       21.9190   24.6710   88.2040 O.3   177  THR177     -0.2208
     48  CG2       20.7120   23.3170   86.6470 C.3   177  THR177      0.0378
     49  N         34.4860   24.1070   90.3060 N.3   213  GLY213     -0.1210
     50  CA        33.4120   25.0420   90.5850 C.3   213  GLY213      0.1956
     51  C         32.0550   24.5720   90.0930 C.2   213  GLY213      0.2611
     52  O         31.0250   24.9040   90.6820 O.2   213  GLY213     -0.2717
     53  N         32.0480   23.7980   89.0130 N.am  214  LEU214     -0.1979
     54  CA        30.8040   23.2910   88.4400 C.3   214  LEU214      0.1596
     55  C         30.3450   22.0270   89.1580 C.2   214  LEU214      0.2287
     56  O         29.1540   21.7150   89.1840 O.2   214  LEU214     -0.2864
     57  CB        30.9990   22.9980   86.9490 C.3   214  LEU214      0.0297
     58  CG        31.5120   24.1640   86.0930 C.3   214  LEU214      0.0022
     59  CD1       31.9190   23.6610   84.7150 C.3   214  LEU214      0.0001
     60  CD2       30.4370   25.2330   85.9880 C.3   214  LEU214      0.0001
     61  N         20.4570   31.1920   79.3950 N.3   263  ASN263     -0.1225
     62  CA        19.8870   30.2070   80.3030 C.3   263  ASN263      0.1785
     63  C         18.7250   30.8080   81.1090 C.2   263  ASN263      0.2597
     64  O         18.5010   32.0140   81.0630 O.2   263  ASN263     -0.2718
     65  CB        20.9880   29.6760   81.2340 C.3   263  ASN263      0.1169
     66  CG        20.5260   28.4910   82.0610 C.2   263  ASN263      0.2627
     67  OD1       19.8670   27.5910   81.5440 O.2   263  ASN263     -0.2716
     68  ND2       20.8760   28.4820   83.3470 N.am  263  ASN263     -0.0877
     69  N         17.9890   29.9590   81.8250 N.am  264  LYS264     -0.1980
     70  CA        16.8300   30.3700   82.6220 C.3   264  LYS264      0.1596
     71  C         15.7290   30.8970   81.7070 C.2   264  LYS264      0.2287
     72  O         14.8970   31.7300   82.1000 O.2   264  LYS264     -0.2864
     73  CB        17.2240   31.4290   83.6600 C.3   264  LYS264      0.0298
     74  CG        18.2980   30.9360   84.6290 C.3   264  LYS264      0.0038
     75  CD        18.3950   31.7870   85.8900 C.3   264  LYS264      0.0206
     76  CE        19.6050   31.3950   86.7260 C.3   264  LYS264      0.1093
     77  NZ        19.6170   32.0940   88.0530 N.3   264  LYS264     -0.1314
     78  N         13.2030   29.5360   80.8770 N.3   266  ASP266     -0.1225
     79  CA        11.9000   29.1780   81.4370 C.3   266  ASP266      0.1805
     80  C         11.3200   30.2860   82.3190 C.2   266  ASP266      0.2597
     81  O         10.1150   30.3160   82.5590 O.2   266  ASP266     -0.2718
     82  CB        12.0060   27.8790   82.2500 C.3   266  ASP266      0.1424
     83  CG        13.0220   27.9760   83.3760 C.2   266  ASP266      0.3668
     84  OD1       14.2340   28.0290   83.0800 O.co2 266  ASP266     -0.2456
     85  OD2       12.6120   28.0050   84.5600 O.co2 266  ASP266     -0.2456
     86  N         12.1700   31.1930   82.7970 N.am  267  LEU267     -0.1979
     87  CA        11.7230   32.2940   83.6470 C.3   267  LEU267      0.1596
     88  C         11.3540   33.5590   82.8730 C.2   267  LEU267      0.2287
     89  O         10.8500   34.5230   83.4560 O.2   267  LEU267     -0.2864
     90  CB        12.7990   32.6480   84.6720 C.3   267  LEU267      0.0297
     91  CG        13.1910   31.5760   85.6890 C.3   267  LEU267      0.0022
     92  CD1       14.2750   32.1240   86.6070 C.3   267  LEU267      0.0001
     93  CD2       11.9790   31.1540   86.4930 C.3   267  LEU267      0.0001
     94  N         17.2490   25.9610   79.3850 N.3   298  SER298     -0.1202
     95  CA        16.6960   25.9060   80.7230 C.3   298  SER298      0.2020
     96  C         17.4380   24.7320   81.3400 C.2   298  SER298      0.2619
     97  O         17.0830   23.5740   81.1200 O.2   298  SER298     -0.2717
     98  CB        15.1990   25.6260   80.7490 C.3   298  SER298      0.2103
     99  OG        14.7680   25.5560   82.1060 O.3   298  SER298     -0.2182
    100  N         18.4980   25.0310   82.0750 N.am  299  ALA299     -0.1965
    101  CA        19.2740   23.9820   82.7160 C.3   299  ALA299      0.1728
    102  C         18.3880   23.2680   83.7290 C.2   299  ALA299      0.2616
    103  O         18.5420   22.0730   83.9710 O.2   299  ALA299     -0.2715
    104  CB        20.4770   24.5730   83.4080 C.3   299  ALA299      0.0334
    105  N         17.4540   24.0160   84.3070 N.am  300  ASP300     -0.1971
    106  CA        16.5440   23.4750   85.3070 C.3   300  ASP300      0.1709
    107  C         15.5570   22.4870   84.6990 C.2   300  ASP300      0.2293
    108  O         15.4270   21.3600   85.1810 O.2   300  ASP300     -0.2864
    109  CB        15.7780   24.6170   85.9840 C.3   300  ASP300      0.1436
    110  CG        14.9000   24.1340   87.1270 C.2   300  ASP300      0.3671
    111  OD1       15.4570   23.6740   88.1460 O.co2 300  ASP300     -0.2456
    112  OD2       13.6610   24.2070   86.9960 O.co2 300  ASP300     -0.2456
@<TRIPOS>BOND
     1    94    95    1
     2    61    62    1
     3    62    63    1
     4    62    65    1
     5    95    98    1
     6    95    96    1
     7    98    99    1
     8    78    79    1
     9    64    63    2
    10    63    69   am
    11    97    96    2
    12    65    66    1
    13    96   100   am
    14    79    82    1
    15    79    80    1
    16    67    66    2
    17    71    72    2
    18    71    70    1
    19    69    70    1
    20    66    68   am
    21   100   101    1
    22    82    83    1
    23    80    81    2
    24    80    86   am
    25    70    73    1
    26   101   104    1
    27   101   102    1
    28    86    87    1
    29    88    89    2
    30    88    87    1
    31    84    83   ar
    32    83    85   ar
    33    87    90    1
    34    73    74    1
    35   102   103    2
    36   102   105   am
    37   105   106    1
    38    74    75    1
    39    22    20    1
    40    90    91    1
    41    19    18    2
    42   107   108    2
    43   107   106    1
    44    32    33    1
    45    32    31    1
    46    59    58    1
    47    20    21    1
    48    20    17    1
    49    26    25    2
    50    30    29    2
    51    33    34    1
    52    45    44    2
    53    28    31    1
    54    28    27    1
    55    28    29    1
    56    44    43    1
    57   106   109    1
    58    25    27   am
    59    25    24    1
    60    18    17    1
    61    18    23   am
    62    29    36   am
    63    91    93    1
    64    91    92    1
    65    17    16    1
    66    75    76    1
    67    24    23    1
    68   109   110    1
    69    60    58    1
    70    58    57    1
    71    34    35    1
    72    48    46    1
    73    43    46    1
    74    43    42    1
    75    76    77    1
    76    39    38    2
    77    46    47    1
    78    36    37    1
    79    57    54    1
    80   112   110   ar
    81    42    38   am
    82    38    37    1
    83   110   111   ar
    84    16    10   am
    85    37    40    1
    86    11    10    2
    87    10     9    1
    88    54    53    1
    89    54    55    1
    90     1     7    1
    91     1     2    1
    92    53    51   am
    93     4     3    2
    94    40    41    1
    95     7     6    1
    96    55    56    2
    97     3     2    1
    98     3     8   am
    99     2     5    1
   100     9     8    1
   101     9    12    1
   102    51    50    1
   103    51    52    2
   104    49    50    1
   105     6     5    1
   106    12    13    1
   107    15    13   am
   108    13    14    2
