@<TRIPOS>MOLECULE
tmp/1ml3C01.pdb
 100 92 0 0 0
SMALL
GASTEIGER

@<TRIPOS>ATOM
      1  N          8.6110   12.0480   52.0280 N.3   136  PRO136     -0.2116
      2  CA         8.4940   13.3880   52.6040 C.3   136  PRO136      0.1372
      3  C          7.1260   13.5490   53.2620 C.2   136  PRO136      0.2244
      4  O          6.1180   13.0700   52.7300 O.2   136  PRO136     -0.2868
      5  CB         8.6690   14.2880   51.3890 C.3   136  PRO136      0.0268
      6  CG         9.6520   13.5250   50.5690 C.3   136  PRO136      0.0207
      7  CD         9.1170   12.1150   50.6460 C.3   136  PRO136      0.0892
      8  N         13.1300   11.4170   51.4420 N.3   165  SER165     -0.1202
      9  CA        13.0210   10.7480   50.1480 C.3   165  SER165      0.2020
     10  C         14.3070   10.0190   49.7580 C.2   165  SER165      0.2619
     11  O         15.3450   10.1770   50.4090 O.2   165  SER165     -0.2717
     12  CB        12.6620   11.7770   49.0800 C.3   165  SER165      0.2103
     13  OG        13.6030   12.8380   49.0720 O.3   165  SER165     -0.2182
     14  N         14.2450    9.2270   48.6920 N.am  166  CYS166     -0.1955
     15  CA        15.4200    8.4810   48.2400 C.3   166  CYS166      0.1843
     16  C         16.4820    9.5200   47.9310 C.2   166  CYS166      0.2626
     17  O         17.6230    9.4290   48.3730 O.2   166  CYS166     -0.2714
     18  CB        15.1100    7.7340   46.9360 C.3   166  CYS166      0.0997
     19  SG        13.5480    8.1340   46.0890 S.3   166  CYS166     -0.0797
     20  N         16.0710   10.5080   47.1440 N.am  167  THR167     -0.1950
     21  CA        16.9380   11.5840   46.6980 C.3   167  THR167      0.1897
     22  C         17.4970   12.4150   47.8420 C.2   167  THR167      0.2313
     23  O         18.6940   12.7260   47.8570 O.2   167  THR167     -0.2863
     24  CB        16.1960   12.5110   45.7090 C.3   167  THR167      0.1794
     25  OG1       15.4990   11.7190   44.7360 O.3   167  THR167     -0.2208
     26  CG2       17.1830   13.4130   44.9840 C.3   167  THR167      0.0378
     27  N         18.8780   15.2720   39.2270 N.3   192  THR192     -0.1218
     28  CA        18.9650   13.8370   39.3940 C.3   192  THR192      0.1862
     29  C         18.4610   13.1090   38.1480 C.2   192  THR192      0.2287
     30  O         17.3400   13.3500   37.6790 O.2   192  THR192     -0.2866
     31  CB        18.1760   13.3670   40.6560 C.3   192  THR192      0.1770
     32  OG1       18.4160   11.9730   40.8700 O.3   192  THR192     -0.2211
     33  CG2       16.6800   13.6050   40.4990 C.3   192  THR192      0.0375
     34  N         17.0200   10.2360   37.1550 N.3   194  HIS194     -0.1241
     35  CA        16.2470    9.2550   37.8970 C.3   194  HIS194      0.1621
     36  C         15.5210    8.2260   37.0290 C.2   194  HIS194      0.2264
     37  O         15.0490    8.5400   35.9270 O.2   194  HIS194     -0.2867
     38  CB        15.2440   10.0480   38.7430 C.3   194  HIS194      0.0745
     39  CG        14.6640    9.3000   39.8980 C.ar  194  HIS194      0.0817
     40  ND1       13.9310    8.1400   39.7510 N.ar  194  HIS194     -0.2268
     41  CD2       14.6540    9.5850   41.2220 C.ar  194  HIS194      0.1154
     42  CE1       13.4920    7.7450   40.9330 C.ar  194  HIS194      0.1986
     43  NE2       13.9170    8.6050   41.8420 N.ar  194  HIS194     -0.2212
     44  N          9.3060    5.3690   37.8810 N.3   197  THR197     -0.1218
     45  CA         8.7070    4.7240   39.0490 C.3   197  THR197      0.1862
     46  C          7.2400    4.3810   38.8020 C.2   197  THR197      0.2287
     47  O          6.6710    4.7190   37.7580 O.2   197  THR197     -0.2866
     48  CB         8.7810    5.6330   40.3010 C.3   197  THR197      0.1770
     49  OG1        8.0500    6.8410   40.0520 O.3   197  THR197     -0.2211
     50  CG2       10.2200    5.9860   40.6340 C.3   197  THR197      0.0375
     51  N         11.0850   16.8970   35.5640 N.3   224  SER224     -0.1202
     52  CA        10.1580   16.9940   36.6820 C.3   224  SER224      0.2020
     53  C         10.7400   17.8400   37.7960 C.2   224  SER224      0.2619
     54  O         11.9620   17.9840   37.9090 O.2   224  SER224     -0.2717
     55  CB         9.8200   15.6100   37.2440 C.3   224  SER224      0.2103
     56  OG         8.8970   15.7180   38.3250 O.3   224  SER224     -0.2182
     57  N          9.8570   18.4110   38.6090 N.am  225  THR225     -0.1938
     58  CA        10.2810   19.2190   39.7450 C.3   225  THR225      0.2028
     59  C         10.4200   18.2500   40.9030 C.2   225  THR225      0.2642
     60  O          9.7910   17.1810   40.9130 O.2   225  THR225     -0.2714
     61  CB         9.2350   20.2870   40.1300 C.3   225  THR225      0.1808
     62  OG1        8.0060   19.6440   40.4980 O.3   225  THR225     -0.2208
     63  CG2        8.9950   21.2550   38.9680 C.3   225  THR225      0.0379
     64  N         11.2490   18.6110   41.8730 N.am  226  THR226     -0.1950
     65  CA        11.4600   17.7660   43.0360 C.3   226  THR226      0.1897
     66  C         11.7350   18.6270   44.2590 C.2   226  THR226      0.2313
     67  O         12.2750   19.7350   44.1450 O.2   226  THR226     -0.2863
     68  CB        12.6400   16.7950   42.8120 C.3   226  THR226      0.1794
     69  OG1       12.8970   16.0630   44.0190 O.3   226  THR226     -0.2208
     70  CG2       13.8870   17.5560   42.4000 C.3   226  THR226      0.0378
     71  N         13.3860   17.2860   46.9540 N.3   228  ALA228     -0.1245
     72  CA        14.6150   16.7540   47.5320 C.3   228  ALA228      0.1562
     73  C         15.6100   17.8160   47.9940 C.2   228  ALA228      0.2260
     74  O         16.0150   17.8250   49.1590 O.2   228  ALA228     -0.2867
     75  CB        15.2850   15.8120   46.5440 C.3   228  ALA228      0.0290
     76  N         14.5980   17.0460   38.4040 N.3   247  SER247     -0.1217
     77  CA        14.7820   15.6520   38.0390 C.3   247  SER247      0.1889
     78  C         14.5880   15.4160   36.5480 C.2   247  SER247      0.2288
     79  O         14.0320   16.2490   35.8330 O.2   247  SER247     -0.2866
     80  CB        13.7960   14.7870   38.8240 C.3   247  SER247      0.2089
     81  OG        13.7780   13.4510   38.3500 O.3   247  SER247     -0.2183
     82  N         13.4660   11.9240   34.6440 N.3   249  ARG249     -0.1245
     83  CA        13.1450   10.5050   34.7020 C.3   249  ARG249      0.1563
     84  C         13.6320    9.8860   33.4010 C.2   249  ARG249      0.2260
     85  O         13.2570   10.3390   32.3230 O.2   249  ARG249     -0.2867
     86  CB        11.6350   10.2850   34.8210 C.3   249  ARG249      0.0307
     87  CG        10.9350   11.0380   35.9560 C.3   249  ARG249      0.0489
     88  CD        11.5720   10.7930   37.3190 C.3   249  ARG249      0.2205
     89  NE        10.6550   11.1300   38.4060 N.pl3 249  ARG249     -0.0865
     90  CZ         9.7470   10.2950   38.9090 C.cat 249  ARG249      0.5346
     91  NH1        9.6310    9.0650   38.4300 N.pl3 249  ARG249      0.1354
     92  NH2        8.9460   10.6870   39.8920 N.pl3 249  ARG249      0.1354
     93  N         17.6830    3.8970   44.4250 N.3   335  ASN335     -0.1240
     94  CA        16.5280    4.5580   45.0270 C.3   335  ASN335      0.1653
     95  C         15.5940    3.6440   45.8070 C.2   335  ASN335      0.2266
     96  O         15.0580    4.0350   46.8410 O.2   335  ASN335     -0.2867
     97  CB        15.7270    5.3670   43.9770 C.3   335  ASN335      0.1155
     98  CG        15.5550    4.6370   42.6460 C.2   335  ASN335      0.2627
     99  OD1       16.5220    4.4180   41.9070 O.2   335  ASN335     -0.2716
    100  ND2       14.3210    4.2760   42.3270 N.am  335  ASN335     -0.0877
@<TRIPOS>BOND
     1    85    84    2
     2    84    83    1
     3    82    83    1
     4    83    86    1
     5    86    87    1
     6    51    52    1
     7    79    78    2
     8    37    36    2
     9    87    88    1
    10    78    77    1
    11    52    55    1
    12    52    53    1
    13    36    35    1
    14    34    35    1
    15    55    56    1
    16    88    89    1
    17    30    29    2
    18    47    46    2
    19    53    54    2
    20    53    57   am
    21    44    45    1
    22    35    38    1
    23    77    76    1
    24    77    80    1
    25    29    28    1
    26    81    80    1
    27    89    90    2
    28    91    90    1
    29    57    58    1
    30    38    39    1
    31    46    45    1
    32    90    92    1
    33    63    61    1
    34    45    48    1
    35    27    28    1
    36    28    31    1
    37    58    61    1
    38    58    59    1
    39    40    39   ar
    40    40    42   ar
    41    39    41   ar
    42    49    48    1
    43    61    62    1
    44    48    50    1
    45    33    31    1
    46    31    32    1
    47    59    60    2
    48    59    64   am
    49    42    43   ar
    50    41    43   ar
    51    64    65    1
    52    99    98    2
    53   100    98   am
    54    70    68    1
    55    98    97    1
    56    68    65    1
    57    68    69    1
    58    65    66    1
    59    97    94    1
    60    67    66    2
    61    93    94    1
    62    25    24    1
    63    26    24    1
    64    94    95    1
    65    24    21    1
    66    95    96    2
    67    19    18    1
    68    75    72    1
    69    21    20    1
    70    21    22    1
    71    18    15    1
    72    71    72    1
    73    20    16   am
    74    72    73    1
    75    22    23    2
    76    16    15    1
    77    16    17    2
    78    73    74    2
    79    15    14    1
    80    14    10   am
    81    13    12    1
    82    12     9    1
    83    10     9    1
    84    10    11    2
    85     9     8    1
    86     6     7    1
    87     6     5    1
    88     7     1    1
    89     5     2    1
    90     1     2    1
    91     2     3    1
    92     4     3    2
