@<TRIPOS>MOLECULE
tmp/1ml4A00.pdb
 128 124 0 0 0
SMALL
GASTEIGER

@<TRIPOS>ATOM
      1  N         -7.0540   38.8680    7.3570 N.3    53  PRO53      -0.2102
      2  CA        -5.9980   38.1880    6.6010 C.3    53  PRO53       0.1504
      3  C         -6.3680   37.1540    5.5290 C.2    53  PRO53       0.2576
      4  O         -7.3720   36.4330    5.6280 O.2    53  PRO53      -0.2718
      5  CB        -5.0920   37.6180    7.7010 C.3    53  PRO53       0.0282
      6  CG        -5.9910   37.4560    8.8630 C.3    53  PRO53       0.0208
      7  CD        -6.8910   38.6630    8.8090 C.3    53  PRO53       0.0893
      8  N         -5.5300   37.1180    4.4940 N.am   54  SER54      -0.1938
      9  CA        -5.6800   36.2040    3.3640 C.3    54  SER54       0.2055
     10  C         -4.3890   36.0910    2.5800 C.2    54  SER54       0.2644
     11  O         -3.6480   37.0590    2.4360 O.2    54  SER54      -0.2714
     12  CB        -6.7760   36.6810    2.4120 C.3    54  SER54       0.2130
     13  OG        -6.7220   35.9530    1.1940 O.3    54  SER54      -0.2179
     14  N         -4.1100   34.8960    2.0860 N.am   55  THR55      -0.1936
     15  CA        -2.9330   34.6740    1.2690 C.3    55  THR55       0.2028
     16  C         -3.4480   34.2020   -0.0880 C.2    55  THR55       0.2642
     17  O         -3.2160   34.8410   -1.1160 O.2    55  THR55      -0.2714
     18  CB        -2.0130   33.5860    1.8610 C.3    55  THR55       0.1808
     19  OG1       -1.5100   34.0180    3.1370 O.3    55  THR55      -0.2208
     20  CG2       -0.8410   33.3140    0.9080 C.3    55  THR55       0.0379
     21  N         -4.1780   33.0910   -0.0680 N.am   56  ARG56      -0.1963
     22  CA        -4.7350   32.5080   -1.2730 C.3    56  ARG56       0.1729
     23  C         -5.8050   33.3500   -1.9770 C.2    56  ARG56       0.2616
     24  O         -5.6250   33.7480   -3.1280 O.2    56  ARG56      -0.2715
     25  CB        -5.2990   31.1090   -0.9590 C.3    56  ARG56       0.0348
     26  CG        -4.2480   29.9860   -0.9100 C.3    56  ARG56       0.0492
     27  CD        -4.5530   28.9750    0.1880 C.3    56  ARG56       0.2205
     28  NE        -4.3620   29.6000    1.4930 N.pl3  56  ARG56      -0.0865
     29  CZ        -3.2210   29.5960    2.1750 C.cat  56  ARG56       0.5346
     30  NH1       -2.1510   28.9790    1.6940 N.pl3  56  ARG56       0.1354
     31  NH2       -3.1410   30.2450    3.3230 N.pl3  56  ARG56       0.1354
     32  N         -6.9140   33.6250   -1.2960 N.am   57  THR57      -0.1951
     33  CA        -8.0100   34.3650   -1.9150 C.3    57  THR57       0.1897
     34  C         -7.6420   35.7470   -2.4670 C.2    57  THR57       0.2313
     35  O         -8.0760   36.1080   -3.5620 O.2    57  THR57      -0.2863
     36  CB        -9.2050   34.4930   -0.9510 C.3    57  THR57       0.1794
     37  OG1       -9.4370   33.2300   -0.3160 O.3    57  THR57      -0.2208
     38  CG2      -10.4640   34.8680   -1.7110 C.3    57  THR57       0.0378
     39  N        -13.3760   40.7150    1.6650 N.3   106  ARG106     -0.1245
     40  CA       -13.2930   39.7470    2.7520 C.3   106  ARG106      0.1563
     41  C        -13.4410   40.6080    4.0140 C.2   106  ARG106      0.2260
     42  O        -12.6780   41.5490    4.2350 O.2   106  ARG106     -0.2867
     43  CB       -11.9560   39.0100    2.7590 C.3   106  ARG106      0.0307
     44  CG       -11.7530   38.2090    4.0310 C.3   106  ARG106      0.0489
     45  CD       -10.5880   37.2430    3.9420 C.3   106  ARG106      0.2205
     46  NE       -10.9610   36.0680    3.1630 N.pl3 106  ARG106     -0.0865
     47  CZ       -10.2590   34.9420    3.1020 C.cat 106  ARG106      0.5346
     48  NH1       -9.1210   34.8230    3.7800 N.pl3 106  ARG106      0.1354
     49  NH2      -10.7120   33.9270    2.3690 N.pl3 106  ARG106      0.1354
     50  N        -18.3160   31.5240    1.6250 N.3   134  HIS134     -0.1241
     51  CA       -17.0560   31.5720    0.8780 C.3   134  HIS134      0.1621
     52  C        -17.3150   30.9090   -0.4930 C.2   134  HIS134      0.2264
     53  O        -16.8140   29.8190   -0.7720 O.2   134  HIS134     -0.2867
     54  CB       -15.9590   30.8150    1.6400 C.3   134  HIS134      0.0745
     55  CG       -14.5660   31.1920    1.2370 C.ar  134  HIS134      0.0817
     56  ND1      -14.2730   31.7810    0.0220 N.ar  134  HIS134     -0.2268
     57  CD2      -13.3790   31.0380    1.8700 C.ar  134  HIS134      0.1154
     58  CE1      -12.9700   31.9720   -0.0710 C.ar  134  HIS134      0.1986
     59  NE2      -12.4030   31.5310    1.0380 N.ar  134  HIS134     -0.2212
     60  N        -14.3730   29.7470   -3.0340 N.3   137  GLN137     -0.1245
     61  CA       -13.6130   28.5960   -2.5480 C.3   137  GLN137      0.1566
     62  C        -14.3570   27.3550   -3.0040 C.2   137  GLN137      0.2260
     63  O        -13.7730   26.4460   -3.5820 O.2   137  GLN137     -0.2867
     64  CB       -13.5370   28.5820   -1.0210 C.3   137  GLN137      0.0367
     65  CG       -12.7170   27.4240   -0.4710 C.3   137  GLN137      0.0905
     66  CD       -11.2480   27.5150   -0.8560 C.2   137  GLN137      0.2608
     67  OE1      -10.6010   28.5380   -0.6270 O.2   137  GLN137     -0.2717
     68  NE2      -10.7130   26.4430   -1.4330 N.am  137  GLN137     -0.0878
     69  N        -16.6500   28.7730    6.9640 N.3   167  ARG167     -0.1231
     70  CA       -17.4260   29.3030    5.8520 C.3   167  ARG167      0.1694
     71  C        -17.2240   28.4870    4.5710 C.2   167  ARG167      0.2592
     72  O        -18.1240   28.4250    3.7250 O.2   167  ARG167     -0.2718
     73  CB       -17.0830   30.7860    5.6210 C.3   167  ARG167      0.0321
     74  CG       -15.6030   31.1080    5.4070 C.3   167  ARG167      0.0489
     75  CD       -15.3710   32.6330    5.3370 C.3   167  ARG167      0.2205
     76  NE       -13.9550   33.0060    5.3090 N.pl3 167  ARG167     -0.0865
     77  CZ       -13.4900   34.1920    5.7050 C.cat 167  ARG167      0.5346
     78  NH1      -14.3210   35.1180    6.1570 N.pl3 167  ARG167      0.1354
     79  NH2      -12.1960   34.4590    5.6590 N.pl3 167  ARG167      0.1354
     80  N        -16.0610   27.8480    4.4450 N.am  168  THR168     -0.1953
     81  CA       -15.7360   27.0150    3.2750 C.3   168  THR168      0.1897
     82  C        -16.6710   25.8060    3.1180 C.2   168  THR168      0.2313
     83  O        -17.1250   25.5090    2.0120 O.2   168  THR168     -0.2863
     84  CB       -14.2700   26.4970    3.3310 C.3   168  THR168      0.1794
     85  OG1      -14.0920   25.6560    4.4800 O.3   168  THR168     -0.2208
     86  CG2      -13.2970   27.6580    3.4040 C.3   168  THR168      0.0378
     87  N         -9.6270   23.9410    9.0410 N.3   228  ARG228     -0.1245
     88  CA        -8.8350   24.4690   10.1490 C.3   228  ARG228      0.1563
     89  C         -9.7750   24.9810   11.2320 C.2   228  ARG228      0.2260
     90  O        -10.8340   25.5210   10.9230 O.2   228  ARG228     -0.2867
     91  CB        -7.9580   25.6240    9.6510 C.3   228  ARG228      0.0307
     92  CG        -7.2110   26.3740   10.7400 C.3   228  ARG228      0.0489
     93  CD        -6.4990   27.6030   10.1720 C.3   228  ARG228      0.2205
     94  NE        -7.4240   28.6140    9.6520 N.pl3 228  ARG228     -0.0865
     95  CZ        -7.9560   29.6050   10.3670 C.cat 228  ARG228      0.5346
     96  NH1       -7.6650   29.7460   11.6560 N.pl3 228  ARG228      0.1354
     97  NH2       -8.7790   30.4690    9.7860 N.pl3 228  ARG228      0.1354
     98  N        -11.2340   27.5190   13.2350 N.3   230  GLN230     -0.1245
     99  CA       -11.3160   28.9820   13.1220 C.3   230  GLN230      0.1566
    100  C        -11.1410   29.7380   14.4390 C.2   230  GLN230      0.2260
    101  O        -12.0360   30.4670   14.8670 O.2   230  GLN230     -0.2867
    102  CB       -12.6670   29.3660   12.4990 C.3   230  GLN230      0.0367
    103  CG       -13.0200   28.5690   11.2600 C.3   230  GLN230      0.0905
    104  CD       -12.1500   28.9090   10.0640 C.2   230  GLN230      0.2608
    105  OE1      -12.3340   29.9480    9.4200 O.2   230  GLN230     -0.2717
    106  NE2      -11.1940   28.0380    9.7620 N.am  230  GLN230     -0.0878
    107  N         -8.9340   23.8100    2.2020 N.3   266  PRO266     -0.2102
    108  CA        -8.9440   25.1790    1.6780 C.3   266  PRO266      0.1504
    109  C         -7.7100   25.9720    2.1040 C.2   266  PRO266      0.2576
    110  O         -7.3290   26.9470    1.4530 O.2   266  PRO266     -0.2718
    111  CB       -10.2440   25.7450    2.2360 C.3   266  PRO266      0.0282
    112  CG       -10.4020   25.0050    3.5320 C.3   266  PRO266      0.0208
    113  CD       -10.0580   23.5970    3.1310 C.3   266  PRO266      0.0893
    114  N         -7.0870   25.5330    3.1970 N.am  267  LEU267     -0.1967
    115  CA        -5.8860   26.1670    3.7400 C.3   267  LEU267      0.1713
    116  C         -6.1810   27.5410    4.3330 C.2   267  LEU267      0.2458
    117  O         -7.1870   28.1470    4.0170 O.2   267  LEU267     -0.2730
    118  CB        -4.8000   26.2810    2.6620 C.3   267  LEU267      0.0310
    119  CG        -4.2700   24.9860    2.0490 C.3   267  LEU267      0.0022
    120  CD1       -3.0540   25.3140    1.1940 C.3   267  LEU267      0.0001
    121  CD2       -3.8880   24.0050    3.1590 C.3   267  LEU267      0.0001
    122  N         -5.2940   28.0450    5.2060 N.am  268  PRO268     -0.2727
    123  CA        -4.0630   27.3910    5.6610 C.3   268  PRO268      0.1402
    124  C         -4.3450   26.2810    6.6740 C.2   268  PRO268      0.2269
    125  O         -5.4320   26.2110    7.2650 O.2   268  PRO268     -0.2865
    126  CB        -3.2950   28.5390    6.3020 C.3   268  PRO268      0.0296
    127  CG        -4.4060   29.2970    6.9780 C.3   268  PRO268      0.0237
    128  CD        -5.4630   29.3500    5.8780 C.3   268  PRO268      0.0939
@<TRIPOS>BOND
     1    63    62    2
     2    35    34    2
     3    24    23    2
     4    60    61    1
     5    62    61    1
     6    61    64    1
     7    34    33    1
     8    23    32   am
     9    23    22    1
    10    33    32    1
    11    33    36    1
    12    38    36    1
    13    68    66   am
    14    22    25    1
    15    22    21    1
    16    17    16    2
    17    64    65    1
    18    25    26    1
    19    36    37    1
    20    26    27    1
    21    66    67    2
    22    66    65    1
    23    53    52    2
    24    52    51    1
    25    16    21   am
    26    16    15    1
    27    58    56   ar
    28    58    59   ar
    29    56    55   ar
    30    27    28    1
    31    51    50    1
    32    51    54    1
    33    20    18    1
    34    59    57   ar
    35    13    12    1
    36   120   119    1
    37    55    54    1
    38    55    57   ar
    39    15    18    1
    40    15    14    1
    41   110   109    2
    42    28    29    2
    43    39    40    1
    44   108   109    1
    45   108   107    1
    46   108   111    1
    47    30    29    1
    48    18    19    1
    49    83    82    2
    50   119   118    1
    51   119   121    1
    52    14    10   am
    53   109   114   am
    54    29    31    1
    55   107   113    1
    56   111   112    1
    57    49    47    1
    58    12     9    1
    59    11    10    2
    60    10     9    1
    61   118   115    1
    62    40    43    1
    63    40    41    1
    64    43    44    1
    65    47    46    2
    66    47    48    1
    67    82    81    1
    68   113   112    1
    69    46    45    1
    70   114   115    1
    71    81    84    1
    72    81    80    1
    73    84    86    1
    74    84    85    1
    75     9     8    1
    76    72    71    2
    77   115   116    1
    78    45    44    1
    79    41    42    2
    80   117   116    2
    81   116   122   am
    82    80    71   am
    83     8     3   am
    84    71    70    1
    85   122   123    1
    86   122   128    1
    87    76    75    1
    88    76    77    2
    89    75    74    1
    90    74    73    1
    91     3     4    2
    92     3     2    1
    93    73    70    1
    94    79    77    1
    95   123   126    1
    96   123   124    1
    97    77    78    1
    98    70    69    1
    99   128   127    1
   100   126   127    1
   101     2     1    1
   102     2     5    1
   103   124   125    2
   104     1     7    1
   105     5     6    1
   106     7     6    1
   107    87    88    1
   108   105   104    2
   109    91    88    1
   110    91    92    1
   111    94    93    1
   112    94    95    2
   113   106   104   am
   114    97    95    1
   115   104   103    1
   116    88    89    1
   117    93    92    1
   118    95    96    1
   119    90    89    2
   120   103   102    1
   121   102    99    1
   122    99    98    1
   123    99   100    1
   124   100   101    2
