@<TRIPOS>MOLECULE
tmp/1mlvC01.pdb
 163 160 0 0 0
SMALL
GASTEIGER

@<TRIPOS>ATOM
      1  N        109.7770  129.6210  142.0680 N.3   172  SER172     -0.1202
      2  CA       111.2070  129.3540  142.0560 C.3   172  SER172      0.2020
      3  C        111.7380  128.9270  143.4140 C.2   172  SER172      0.2619
      4  O        112.8620  128.4570  143.5040 O.2   172  SER172     -0.2717
      5  CB       111.9810  130.5900  141.6150 C.3   172  SER172      0.2103
      6  OG       112.4040  131.3360  142.7440 O.3   172  SER172     -0.2182
      7  N        110.9310  129.0770  144.4610 N.am  173  ARG173     -0.1965
      8  CA       111.3740  128.7460  145.8110 C.3   173  ARG173      0.1729
      9  C        110.6070  127.7000  146.6170 C.2   173  ARG173      0.2616
     10  O        111.2120  126.9350  147.3720 O.2   173  ARG173     -0.2715
     11  CB       111.4320  130.0200  146.6480 C.3   173  ARG173      0.0348
     12  CG       112.5410  130.9480  146.2860 C.3   173  ARG173      0.0492
     13  CD       112.5380  132.1900  147.1610 C.3   173  ARG173      0.2205
     14  NE       113.8500  132.8110  147.1070 N.pl3 173  ARG173     -0.0865
     15  CZ       114.8400  132.5170  147.9350 C.cat 173  ARG173      0.5346
     16  NH1      114.6580  131.6250  148.8900 N.pl3 173  ARG173      0.1354
     17  NH2      116.0210  133.0870  147.7880 N.pl3 173  ARG173      0.1354
     18  N        109.2830  127.6910  146.4860 N.am  174  ALA174     -0.1963
     19  CA       108.4370  126.7690  147.2430 C.3   174  ALA174      0.1728
     20  C        108.7710  125.3080  146.9930 C.2   174  ALA174      0.2616
     21  O        109.2080  124.9570  145.9020 O.2   174  ALA174     -0.2715
     22  CB       106.9690  127.0290  146.9120 C.3   174  ALA174      0.0334
     23  N        108.5840  124.4650  148.0070 N.am  175  PHE175     -0.1960
     24  CA       108.8270  123.0310  147.8640 C.3   175  PHE175      0.1771
     25  C        107.4900  122.4120  147.4740 C.2   175  PHE175      0.2620
     26  O        106.4530  122.8540  147.9580 O.2   175  PHE175     -0.2715
     27  CB       109.2960  122.4110  149.1830 C.3   175  PHE175      0.0574
     28  CG       110.6880  122.8100  149.5930 C.ar  175  PHE175     -0.0200
     29  CD1      110.9450  124.0690  150.1240 C.ar  175  PHE175     -0.0042
     30  CD2      111.7480  121.9250  149.4430 C.ar  175  PHE175     -0.0042
     31  CE1      112.2500  124.4420  150.5030 C.ar  175  PHE175     -0.0003
     32  CE2      113.0480  122.2880  149.8160 C.ar  175  PHE175     -0.0003
     33  CZ       113.2980  123.5480  150.3460 C.ar  175  PHE175     -0.0000
     34  N        107.4950  121.4020  146.6050 N.am  176  SER176     -0.1936
     35  CA       106.2320  120.7780  146.2000 C.3   176  SER176      0.2055
     36  C        106.1130  119.2700  146.4620 C.2   176  SER176      0.2642
     37  O        105.0280  118.7750  146.7630 O.2   176  SER176     -0.2714
     38  CB       105.9540  121.0520  144.7200 C.3   176  SER176      0.2130
     39  OG       106.8130  120.2990  143.8840 O.3   176  SER176     -0.2179
     40  N        107.2180  118.5450  146.3420 N.am  177  ARG177     -0.1977
     41  CA       107.2290  117.0980  146.5590 C.3   177  ARG177      0.1597
     42  C        107.0440  116.7430  148.0410 C.2   177  ARG177      0.2287
     43  O        107.8290  115.9810  148.6100 O.2   177  ARG177     -0.2864
     44  CB       108.5540  116.5040  146.0630 C.3   177  ARG177      0.0334
     45  CG       108.8130  116.5810  144.5540 C.3   177  ARG177      0.0492
     46  CD       110.3090  116.3350  144.2540 C.3   177  ARG177      0.2205
     47  NE       110.6210  116.3370  142.8260 N.pl3 177  ARG177     -0.0865
     48  CZ       110.5490  115.2630  142.0450 C.cat 177  ARG177      0.5346
     49  NH1      110.1820  114.0930  142.5560 N.pl3 177  ARG177      0.1354
     50  NH2      110.8290  115.3550  140.7480 N.pl3 177  ARG177      0.1354
     51  N        115.2190  127.4100  152.1870 N.3   190  ASP190     -0.1225
     52  CA       115.1480  127.7310  150.7800 C.3   190  ASP190      0.1805
     53  C        116.3260  128.5600  150.2590 C.2   190  ASP190      0.2598
     54  O        116.1690  129.5200  149.5200 O.2   190  ASP190     -0.2718
     55  CB       113.7710  128.3510  150.4530 C.3   190  ASP190      0.1424
     56  CG       113.7040  129.8610  150.6500 C.2   190  ASP190      0.3668
     57  OD1      114.4970  130.4380  151.4280 O.co2 190  ASP190     -0.2456
     58  OD2      112.8150  130.4750  150.0160 O.co2 190  ASP190     -0.2456
     59  N        117.5260  128.1650  150.6560 N.am  191  LEU191     -0.1966
     60  CA       118.7340  128.8260  150.1890 C.3   191  LEU191      0.1728
     61  C        119.6030  127.8050  149.4610 C.2   191  LEU191      0.2616
     62  O        120.5700  128.1860  148.8080 O.2   191  LEU191     -0.2715
     63  CB       119.5170  129.4450  151.3500 C.3   191  LEU191      0.0311
     64  CG       118.9730  130.7380  151.9590 C.3   191  LEU191      0.0022
     65  CD1      119.9340  131.1890  153.0250 C.3   191  LEU191      0.0001
     66  CD2      118.8180  131.8250  150.9030 C.3   191  LEU191      0.0001
     67  N        119.2650  126.5160  149.5860 N.am  192  ILE192     -0.1977
     68  CA       120.0150  125.4570  148.9030 C.3   192  ILE192      0.1596
     69  C        119.8390  125.6720  147.4170 C.2   192  ILE192      0.2287
     70  O        118.7380  125.9810  146.9420 O.2   192  ILE192     -0.2864
     71  CB       119.4900  124.0100  149.1890 C.3   192  ILE192      0.0276
     72  CG1      118.0860  124.0860  149.7540 C.3   192  ILE192      0.0022
     73  CG2      120.4690  123.2170  150.0630 C.3   192  ILE192      0.0022
     74  CD1      117.0930  124.6820  148.7800 C.3   192  ILE192      0.0001
     75  N        117.7570  113.1490  144.5010 N.3   201  GLU201     -0.1245
     76  CA       116.5190  113.9320  144.6420 C.3   201  GLU201      0.1567
     77  C        115.4410  113.0140  145.2290 C.2   201  GLU201      0.2260
     78  O        114.2420  113.1280  144.9450 O.2   201  GLU201     -0.2867
     79  CB       116.0630  114.5610  143.3130 C.3   201  GLU201      0.0388
     80  CG       115.0900  113.7440  142.4760 C.3   201  GLU201      0.1160
     81  CD       113.9840  114.6020  141.8880 C.2   201  GLU201      0.3649
     82  OE1      113.2340  114.1010  141.0210 O.co2 201  GLU201     -0.2457
     83  OE2      113.8630  115.7760  142.3060 O.co2 201  GLU201     -0.2457
     84  N        114.1840  113.2250  147.5760 N.3   203  HIS203     -0.1241
     85  CA       113.6020  114.1580  148.5330 C.3   203  HIS203      0.1621
     86  C        114.5940  114.3350  149.6690 C.2   203  HIS203      0.2264
     87  O        114.6020  113.5740  150.6300 O.2   203  HIS203     -0.2867
     88  CB       112.2760  113.6350  149.0850 C.3   203  HIS203      0.0745
     89  CG       111.1480  113.6930  148.1060 C.ar  203  HIS203      0.0817
     90  ND1      109.9350  113.0760  148.3300 N.ar  203  HIS203     -0.2268
     91  CD2      111.0560  114.2750  146.8880 C.ar  203  HIS203      0.1154
     92  CE1      109.1470  113.2700  147.2880 C.ar  203  HIS203      0.1986
     93  NE2      109.8040  113.9930  146.3990 N.ar  203  HIS203     -0.2212
     94  N        114.4130  116.2780  151.6950 N.3   205  TYR205     -0.1241
     95  CA       113.6450  116.9270  152.7430 C.3   205  TYR205      0.1605
     96  C        112.2990  116.2530  153.0060 C.2   205  TYR205      0.2264
     97  O        111.7210  115.6350  152.1150 O.2   205  TYR205     -0.2867
     98  CB       113.3940  118.3750  152.3410 C.3   205  TYR205      0.0534
     99  CG       112.4280  118.4880  151.1920 C.ar  205  TYR205     -0.0201
    100  CD1      111.0540  118.4450  151.4120 C.ar  205  TYR205     -0.0009
    101  CD2      112.8830  118.5820  149.8840 C.ar  205  TYR205     -0.0009
    102  CE1      110.1550  118.4930  150.3570 C.ar  205  TYR205      0.0417
    103  CE2      111.9940  118.6310  148.8180 C.ar  205  TYR205      0.0417
    104  CZ       110.6330  118.5860  149.0660 C.ar  205  TYR205      0.1957
    105  OH       109.7410  118.6340  148.0300 O.3   205  TYR205     -0.2866
    106  N        121.3310  120.2510  146.2730 N.3   236  ILE236     -0.1231
    107  CA       120.2940  119.2370  146.1100 C.3   236  ILE236      0.1692
    108  C        119.8980  119.2610  144.6390 C.2   236  ILE236      0.2592
    109  O        120.2690  120.1860  143.9070 O.2   236  ILE236     -0.2718
    110  CB       119.0200  119.5020  146.9410 C.3   236  ILE236      0.0266
    111  CG1      118.4240  120.8590  146.5770 C.3   236  ILE236      0.0019
    112  CG2      119.3300  119.3850  148.4040 C.3   236  ILE236      0.0020
    113  CD1      117.0460  121.1000  147.1710 C.3   236  ILE236      0.0001
    114  N        119.1620  118.2420  144.2060 N.am  237  GLN237     -0.1966
    115  CA       118.6870  118.1570  142.8310 C.3   237  GLN237      0.1733
    116  C        117.2880  118.7450  142.8430 C.2   237  GLN237      0.2616
    117  O        116.4300  118.2610  143.5600 O.2   237  GLN237     -0.2715
    118  CB       118.6390  116.6880  142.3780 C.3   237  GLN237      0.0408
    119  CG       117.7890  116.3850  141.1320 C.3   237  GLN237      0.0908
    120  CD       118.1660  117.2360  139.9220 C.2   237  GLN237      0.2608
    121  OE1      119.3410  117.3280  139.5360 O.2   237  GLN237     -0.2717
    122  NE2      117.1630  117.8520  139.3080 N.am  237  GLN237     -0.0878
    123  N        117.0470  119.7900  142.0640 N.am  238  TYR238     -0.1960
    124  CA       115.7210  120.3740  142.0520 C.3   238  TYR238      0.1771
    125  C        114.6850  119.4490  141.4150 C.2   238  TYR238      0.2619
    126  O        113.6200  119.2400  141.9850 O.2   238  TYR238     -0.2715
    127  CB       115.7260  121.7310  141.3470 C.3   238  TYR238      0.0574
    128  CG       116.2430  122.8840  142.1920 C.ar  238  TYR238     -0.0198
    129  CD1      116.0640  124.2080  141.7750 C.ar  238  TYR238     -0.0009
    130  CD2      116.9260  122.6590  143.3950 C.ar  238  TYR238     -0.0009
    131  CE1      116.5510  125.2880  142.5320 C.ar  238  TYR238      0.0417
    132  CE2      117.4190  123.7220  144.1540 C.ar  238  TYR238      0.0417
    133  CZ       117.2290  125.0410  143.7160 C.ar  238  TYR238      0.1957
    134  OH       117.7200  126.1140  144.4440 O.3   238  TYR238     -0.2866
    135  N        114.9860  118.8810  140.2520 N.am  239  ASP239     -0.1971
    136  CA       114.0360  117.9830  139.5960 C.3   239  ASP239      0.1709
    137  C        114.6920  117.2340  138.4440 C.2   239  ASP239      0.2293
    138  O        114.9840  117.8060  137.3940 O.2   239  ASP239     -0.2864
    139  CB       112.8400  118.7770  139.0660 C.3   239  ASP239      0.1436
    140  CG       111.6430  117.8970  138.7490 C.2   239  ASP239      0.3671
    141  OD1      111.8030  116.8710  138.0420 O.co2 239  ASP239     -0.2456
    142  OD2      110.5280  118.2370  139.2080 O.co2 239  ASP239     -0.2456
    143  N        112.4540  117.4520  135.0190 N.3   242  LYS242     -0.1245
    144  CA       112.1190  118.6900  134.3350 C.3   242  LYS242      0.1561
    145  C        112.9930  118.8840  133.1220 C.2   242  LYS242      0.2260
    146  O        114.1600  118.5040  133.1280 O.2   242  LYS242     -0.2867
    147  CB       112.2920  119.8850  135.2710 C.3   242  LYS242      0.0271
    148  CG       111.0730  120.1850  136.1120 C.3   242  LYS242      0.0035
    149  CD       111.3260  121.3330  137.0430 C.3   242  LYS242      0.0206
    150  CE       110.0480  121.7360  137.7280 C.3   242  LYS242      0.1093
    151  NZ       110.3620  122.4180  138.9950 N.3   242  LYS242     -0.1314
    152  N        113.0350  128.4090  137.3050 N.3   251  TYR251     -0.1241
    153  CA       114.1760  129.0340  137.9770 C.3   251  TYR251      0.1605
    154  C        114.9250  129.8150  136.9050 C.2   251  TYR251      0.2264
    155  O        114.5190  129.8360  135.7390 O.2   251  TYR251     -0.2867
    156  CB       115.0920  127.9710  138.5970 C.3   251  TYR251      0.0534
    157  CG       114.3600  126.7410  139.1160 C.ar  251  TYR251     -0.0201
    158  CD1      114.2360  125.5980  138.3280 C.ar  251  TYR251     -0.0009
    159  CD2      113.7580  126.7370  140.3710 C.ar  251  TYR251     -0.0009
    160  CE1      113.5290  124.4800  138.7690 C.ar  251  TYR251      0.0417
    161  CE2      113.0460  125.6260  140.8270 C.ar  251  TYR251      0.0417
    162  CZ       112.9330  124.4970  140.0200 C.ar  251  TYR251      0.1957
    163  OH       112.2270  123.3890  140.4590 O.3   251  TYR251     -0.2866
@<TRIPOS>BOND
     1   145   146    2
     2   145   144    1
     3   144   143    1
     4   144   147    1
     5   147   148    1
     6   155   154    2
     7   148   149    1
     8   154   153    1
     9   149   150    1
    10   152   153    1
    11   138   137    2
    12   150   151    1
    13   153   156    1
    14   141   140   ar
    15   158   160   ar
    16   158   157   ar
    17   137   136    1
    18   156   157    1
    19   140   139    1
    20   140   142   ar
    21   160   162   ar
    22   139   136    1
    23   157   159   ar
    24   122   120   am
    25   121   120    2
    26   136   135    1
    27   120   119    1
    28   162   163    1
    29   162   161   ar
    30   135   125   am
    31   159   161   ar
    32    50    48    1
    33    82    81   ar
    34   119   118    1
    35   127   124    1
    36   127   128    1
    37   125   126    2
    38   125   124    1
    39     5     2    1
    40     5     6    1
    41   129   128   ar
    42   129   131   ar
    43    81    83   ar
    44    81    80    1
    45    48    49    1
    46    48    47    2
    47   124   123    1
    48     2     1    1
    49     2     3    1
    50   123   116   am
    51   128   130   ar
    52   118   115    1
    53    80    79    1
    54   131   133   ar
    55    47    46    1
    56   115   116    1
    57   115   114    1
    58   116   117    2
    59    79    76    1
    60   130   132   ar
    61     3     4    2
    62     3     7   am
    63   133   132   ar
    64   133   134    1
    65    39    38    1
    66   109   108    2
    67   114   108   am
    68    46    45    1
    69     7     8    1
    70    75    76    1
    71    45    44    1
    72   108   107    1
    73    76    77    1
    74    38    35    1
    75    78    77    2
    76     8     9    1
    77     8    11    1
    78    21    20    2
    79    44    41    1
    80   107   106    1
    81   107   110    1
    82    35    36    1
    83    35    34    1
    84    12    11    1
    85    12    13    1
    86    40    36   am
    87    40    41    1
    88    93    91   ar
    89    93    92   ar
    90    36    37    2
    91    18     9   am
    92    18    19    1
    93    41    42    1
    94   111   110    1
    95   111   113    1
    96    34    25   am
    97     9    10    2
    98    91    89   ar
    99    22    19    1
   100   110   112    1
   101    70    69    2
   102    20    19    1
   103    20    23   am
   104    14    13    1
   105    14    15    2
   106    92    90   ar
   107    69    68    1
   108    25    24    1
   109    25    26    2
   110    84    85    1
   111    17    15    1
   112    24    23    1
   113    24    27    1
   114    15    16    1
   115   105   104    1
   116    42    43    2
   117    89    90   ar
   118    89    88    1
   119    85    88    1
   120    85    86    1
   121    74    72    1
   122    62    61    2
   123   103   104   ar
   124   103   101   ar
   125    68    71    1
   126    68    67    1
   127   104   102   ar
   128    27    28    1
   129    71    72    1
   130    71    73    1
   131    30    28   ar
   132    30    32   ar
   133    61    67   am
   134    61    60    1
   135    54    53    2
   136    28    29   ar
   137    86    87    2
   138    32    33   ar
   139   101    99   ar
   140    58    56   ar
   141    29    31   ar
   142    60    59    1
   143    60    63    1
   144    53    59   am
   145    53    52    1
   146    33    31   ar
   147   102   100   ar
   148    55    56    1
   149    55    52    1
   150    56    57   ar
   151    52    51    1
   152    66    64    1
   153    99   100   ar
   154    99    98    1
   155    63    64    1
   156    94    95    1
   157    64    65    1
   158    97    96    2
   159    98    95    1
   160    95    96    1
