@<TRIPOS>MOLECULE
tmp/1mlwA00.pdb
 151 149 0 0 0
SMALL
GASTEIGER

@<TRIPOS>ATOM
      1  N         46.4010   31.1300   37.8540 N.3   129  VAL129     -0.1245
      2  CA        47.1860   31.4260   39.0440 C.3   129  VAL129      0.1561
      3  C         46.8130   30.4380   40.1420 C.2   129  VAL129      0.2260
      4  O         45.6440   30.0890   40.3060 O.2   129  VAL129     -0.2867
      5  CB        46.9560   32.9000   39.4990 C.3   129  VAL129      0.0252
      6  CG1       45.5440   33.0750   40.0480 C.3   129  VAL129      0.0019
      7  CG2       48.0060   33.3060   40.5130 C.3   129  VAL129      0.0019
      8  N         46.8980   30.7580   43.4420 N.3   131  GLY131     -0.1210
      9  CA        46.1140   31.3240   44.5250 C.3   131  GLY131      0.1956
     10  C         46.1130   32.8390   44.4690 C.2   131  GLY131      0.2612
     11  O         46.3520   33.4220   43.4190 O.2   131  GLY131     -0.2717
     12  N         45.8430   33.4920   45.5910 N.am  132  TYR132     -0.1962
     13  CA        45.8240   34.9440   45.5830 C.3   132  TYR132      0.1771
     14  C         47.2030   35.5570   45.7520 C.2   132  TYR132      0.2619
     15  O         48.0290   35.0690   46.5210 O.2   132  TYR132     -0.2715
     16  CB        44.8400   35.4580   46.6390 C.3   132  TYR132      0.0574
     17  CG        43.4110   35.4720   46.1170 C.ar  132  TYR132     -0.0198
     18  CD1       42.9560   34.4660   45.2560 C.ar  132  TYR132     -0.0009
     19  CD2       42.5250   36.4920   46.4610 C.ar  132  TYR132     -0.0009
     20  CE1       41.6590   34.4790   44.7480 C.ar  132  TYR132      0.0417
     21  CE2       41.2190   36.5130   45.9580 C.ar  132  TYR132      0.0417
     22  CZ        40.7960   35.5040   45.1010 C.ar  132  TYR132      0.1957
     23  OH        39.5130   35.5140   44.5930 O.3   132  TYR132     -0.2866
     24  N         47.4480   36.6120   44.9820 N.am  133  LEU133     -0.1977
     25  CA        48.7160   37.3270   45.0030 C.3   133  LEU133      0.1596
     26  C         48.5560   38.5570   45.8770 C.2   133  LEU133      0.2287
     27  O         47.4850   38.8090   46.4190 O.2   133  LEU133     -0.2864
     28  CB        49.0830   37.7900   43.5910 C.3   133  LEU133      0.0297
     29  CG        49.1020   36.7580   42.4620 C.3   133  LEU133      0.0022
     30  CD1       49.3580   37.4590   41.1250 C.3   133  LEU133      0.0001
     31  CD2       50.1760   35.7230   42.7480 C.3   133  LEU133      0.0001
     32  N         48.1970   42.5690   46.5170 N.3   135  PRO135     -0.2116
     33  CA        47.4480   43.5360   45.7160 C.3   135  PRO135      0.1372
     34  C         48.3290   44.1140   44.6030 C.2   135  PRO135      0.2244
     35  O         47.8960   44.2340   43.4590 O.2   135  PRO135     -0.2868
     36  CB        47.0450   44.5830   46.7470 C.3   135  PRO135      0.0268
     37  CG        46.7940   43.7440   47.9620 C.3   135  PRO135      0.0207
     38  CD        47.9880   42.8010   47.9570 C.3   135  PRO135      0.0892
     39  N         48.7810   41.4690   41.7360 N.3   138  PHE138     -0.1227
     40  CA        47.5430   41.2600   41.0010 C.3   138  PHE138      0.1736
     41  C         47.2200   42.4820   40.1420 C.2   138  PHE138      0.2595
     42  O         46.8870   42.3540   38.9640 O.2   138  PHE138     -0.2718
     43  CB        46.3730   41.0000   41.9470 C.3   138  PHE138      0.0547
     44  CG        45.0670   40.8000   41.2300 C.ar  138  PHE138     -0.0202
     45  CD1       44.8070   39.6140   40.5530 C.ar  138  PHE138     -0.0042
     46  CD2       44.1220   41.8150   41.1880 C.ar  138  PHE138     -0.0042
     47  CE1       43.6170   39.4440   39.8390 C.ar  138  PHE138     -0.0003
     48  CE2       42.9310   41.6620   40.4810 C.ar  138  PHE138     -0.0003
     49  CZ        42.6770   40.4710   39.8020 C.ar  138  PHE138     -0.0000
     50  N         47.3230   43.6750   40.7190 N.am  139  LEU139     -0.1980
     51  CA        47.0210   44.8730   39.9520 C.3   139  LEU139      0.1596
     52  C         47.9920   45.0870   38.7960 C.2   139  LEU139      0.2287
     53  O         47.6040   45.6070   37.7440 O.2   139  LEU139     -0.2864
     54  CB        47.0050   46.1050   40.8620 C.3   139  LEU139      0.0297
     55  CG        45.9130   46.1170   41.9370 C.3   139  LEU139      0.0022
     56  CD1       46.0080   47.4130   42.7420 C.3   139  LEU139      0.0001
     57  CD2       44.5370   45.9890   41.2850 C.3   139  LEU139      0.0001
     58  N         44.2330   39.1870   33.5280 N.3   147  PHE147     -0.1227
     59  CA        43.5140   38.8910   34.7480 C.3   147  PHE147      0.1736
     60  C         43.9890   37.5320   35.2430 C.2   147  PHE147      0.2595
     61  O         43.7790   36.5180   34.5720 O.2   147  PHE147     -0.2718
     62  CB        42.0000   38.8400   34.5120 C.3   147  PHE147      0.0547
     63  CG        41.1960   39.0100   35.7720 C.ar  147  PHE147     -0.0202
     64  CD1       40.8310   40.2810   36.2080 C.ar  147  PHE147     -0.0042
     65  CD2       40.8520   37.9140   36.5490 C.ar  147  PHE147     -0.0042
     66  CE1       40.1320   40.4570   37.4070 C.ar  147  PHE147     -0.0003
     67  CE2       40.1550   38.0770   37.7520 C.ar  147  PHE147     -0.0003
     68  CZ        39.7980   39.3510   38.1760 C.ar  147  PHE147     -0.0000
     69  N         44.6620   37.5220   36.3930 N.am  148  HIS148     -0.1975
     70  CA        45.1310   36.2730   36.9900 C.3   148  HIS148      0.1656
     71  C         43.8810   35.5790   37.4990 C.2   148  HIS148      0.2291
     72  O         43.1040   36.1530   38.2670 O.2   148  HIS148     -0.2864
     73  CB        46.1010   36.5530   38.1310 C.3   148  HIS148      0.0771
     74  CG        47.3920   37.1630   37.6810 C.ar  148  HIS148      0.0820
     75  ND1       48.5380   36.4240   37.4810 N.ar  148  HIS148     -0.2267
     76  CD2       47.7150   38.4450   37.3920 C.ar  148  HIS148      0.1154
     77  CE1       49.5150   37.2270   37.0950 C.ar  148  HIS148      0.1986
     78  NE2       49.0410   38.4580   37.0330 N.ar  148  HIS148     -0.2212
     79  N         41.9850   31.8420   39.0350 N.3   150  THR150     -0.1218
     80  CA        42.0950   30.4960   39.6020 C.3   150  THR150      0.1862
     81  C         41.3650   29.5460   38.6680 C.2   150  THR150      0.2287
     82  O         40.4180   29.9350   37.9800 O.2   150  THR150     -0.2866
     83  CB        41.4840   30.3890   41.0190 C.3   150  THR150      0.1770
     84  OG1       40.1380   30.8750   41.0120 O.3   150  THR150     -0.2211
     85  CG2       42.3260   31.1790   42.0170 C.3   150  THR150      0.0375
     86  N         33.9140   31.9030   40.7980 N.3   169  HIS169     -0.1226
     87  CA        33.9380   33.3290   41.1020 C.3   169  HIS169      0.1752
     88  C         34.5680   34.0940   39.9460 C.2   169  HIS169      0.2595
     89  O         34.0950   35.1690   39.5610 O.2   169  HIS169     -0.2718
     90  CB        34.7480   33.5830   42.3840 C.3   169  HIS169      0.0759
     91  CG        35.1690   35.0080   42.5630 C.ar  169  HIS169      0.0818
     92  ND1       34.2740   36.0280   42.8010 N.ar  169  HIS169     -0.2268
     93  CD2       36.3930   35.5880   42.5110 C.ar  169  HIS169      0.1154
     94  CE1       34.9260   37.1740   42.8890 C.ar  169  HIS169      0.1986
     95  NE2       36.2140   36.9350   42.7170 N.ar  169  HIS169     -0.2212
     96  N         35.6400   33.5400   39.3890 N.am  170  GLU170     -0.1979
     97  CA        36.3250   34.2000   38.2880 C.3   170  GLU170      0.1602
     98  C         35.4490   34.2470   37.0360 C.2   170  GLU170      0.2287
     99  O         35.2560   35.3020   36.4210 O.2   170  GLU170     -0.2864
    100  CB        37.6150   33.4550   37.9270 C.3   170  GLU170      0.0415
    101  CG        38.4650   32.9590   39.0930 C.3   170  GLU170      0.1163
    102  CD        39.1940   34.0550   39.8460 C.2   170  GLU170      0.3649
    103  OE1       40.1620   33.7180   40.5600 O.co2 170  GLU170     -0.2457
    104  OE2       38.8100   35.2400   39.7400 O.co2 170  GLU170     -0.2457
    105  N         34.0130   37.8690   37.4440 N.3   174  HIS174     -0.1241
    106  CA        34.9450   38.7790   36.7850 C.3   174  HIS174      0.1621
    107  C         34.9390   38.8290   35.2640 C.2   174  HIS174      0.2264
    108  O         35.0220   39.9000   34.6710 O.2   174  HIS174     -0.2867
    109  CB        36.3730   38.4530   37.2260 C.3   174  HIS174      0.0745
    110  CG        36.6890   38.8650   38.6280 C.ar  174  HIS174      0.0817
    111  ND1       36.8890   40.1800   38.9870 N.ar  174  HIS174     -0.2268
    112  CD2       36.8730   38.1340   39.7530 C.ar  174  HIS174      0.1154
    113  CE1       37.1870   40.2420   40.2730 C.ar  174  HIS174      0.1986
    114  NE2       37.1830   39.0150   40.7610 N.ar  174  HIS174     -0.2212
    115  N         43.9710   49.7050   45.4080 N.3   206  ALA206     -0.1245
    116  CA        43.4010   48.3900   45.6920 C.3   206  ALA206      0.1562
    117  C         42.0220   48.5480   46.3340 C.2   206  ALA206      0.2260
    118  O         41.0970   47.7880   46.0360 O.2   206  ALA206     -0.2867
    119  CB        44.3240   47.6050   46.6220 C.3   206  ALA206      0.0290
    120  N         39.5300   49.6270   43.7590 N.3   209  TYR209     -0.1227
    121  CA        39.2380   48.4530   42.9340 C.3   209  TYR209      0.1736
    122  C         38.2440   47.5750   43.6980 C.2   209  TYR209      0.2595
    123  O         37.2760   47.0550   43.1350 O.2   209  TYR209     -0.2718
    124  CB        40.5250   47.6620   42.6730 C.3   209  TYR209      0.0548
    125  CG        40.3100   46.2860   42.0700 C.ar  209  TYR209     -0.0200
    126  CD1       40.4450   46.0660   40.6970 C.ar  209  TYR209     -0.0009
    127  CD2       40.0010   45.1970   42.8810 C.ar  209  TYR209     -0.0009
    128  CE1       40.2820   44.7810   40.1530 C.ar  209  TYR209      0.0417
    129  CE2       39.8360   43.9200   42.3510 C.ar  209  TYR209      0.0417
    130  CZ        39.9800   43.7180   40.9930 C.ar  209  TYR209      0.1957
    131  OH        39.8300   42.4390   40.4970 O.3   209  TYR209     -0.2866
    132  N         38.4920   47.4260   44.9920 N.am  210  PHE210     -0.1976
    133  CA        37.6400   46.6120   45.8500 C.3   210  PHE210      0.1639
    134  C         36.1880   47.0840   45.8410 C.2   210  PHE210      0.2290
    135  O         35.2640   46.2760   45.7100 O.2   210  PHE210     -0.2864
    136  CB        38.1600   46.6510   47.2870 C.3   210  PHE210      0.0560
    137  CG        37.4650   45.6970   48.2090 C.ar  210  PHE210     -0.0200
    138  CD1       37.8510   44.3610   48.2640 C.ar  210  PHE210     -0.0042
    139  CD2       36.4320   46.1330   49.0330 C.ar  210  PHE210     -0.0042
    140  CE1       37.2210   43.4680   49.1320 C.ar  210  PHE210     -0.0003
    141  CE2       35.7940   45.2490   49.9040 C.ar  210  PHE210     -0.0003
    142  CZ        36.1940   43.9120   49.9530 C.ar  210  PHE210     -0.0000
    143  N         35.1670   44.7440   42.6230 N.3   214  GLU214     -0.1245
    144  CA        34.7760   43.6360   43.4910 C.3   214  GLU214      0.1567
    145  C         33.3930   43.7350   44.1350 C.2   214  GLU214      0.2260
    146  O         32.6710   42.7430   44.1890 O.2   214  GLU214     -0.2867
    147  CB        35.8210   43.4250   44.5840 C.3   214  GLU214      0.0388
    148  CG        35.9380   41.9710   45.0360 C.3   214  GLU214      0.1160
    149  CD        36.8600   41.1520   44.1420 C.2   214  GLU214      0.3649
    150  OE1       38.0530   41.5110   44.0460 O.co2 214  GLU214     -0.2457
    151  OE2       36.4010   40.1530   43.5440 O.co2 214  GLU214     -0.2457
@<TRIPOS>BOND
     1    58    59    1
     2    62    59    1
     3    62    63    1
     4    61    60    2
     5   108   107    2
     6    59    60    1
     7    60    69   am
     8   107   106    1
     9    63    64   ar
    10    63    65   ar
    11    64    66   ar
    12    69    70    1
    13    99    98    2
    14    65    67   ar
    15   106   109    1
    16   106   105    1
    17    70    71    1
    18    70    73    1
    19    78    77   ar
    20    78    76   ar
    21    98    97    1
    22    77    75   ar
    23   109   110    1
    24    76    74   ar
    25    66    68   ar
    26    75    74   ar
    27    71    72    2
    28    74    73    1
    29    53    52    2
    30    67    68   ar
    31     1     2    1
    32   100    97    1
    33   100   101    1
    34    82    81    2
    35    97    96    1
    36   110   111   ar
    37   110   112   ar
    38    81    80    1
    39    52    51    1
    40    42    41    2
    41   111   113   ar
    42    79    80    1
    43     2     5    1
    44     2     3    1
    45   101   102    1
    46    96    88   am
    47     5     6    1
    48     5     7    1
    49    89    88    2
    50    80    83    1
    51   104   102   ar
    52   112   114   ar
    53    49    47   ar
    54    49    48   ar
    55    47    45   ar
    56   102   103   ar
    57    88    87    1
    58    51    50    1
    59    51    54    1
    60     3     4    2
    61    41    50   am
    62    41    40    1
    63   128   126   ar
    64   128   130   ar
    65   113   114   ar
    66    48    46   ar
    67   131   130    1
    68    45    44   ar
    69   126   125   ar
    70    86    87    1
    71    54    55    1
    72   130   129   ar
    73    40    39    1
    74    40    43    1
    75    84    83    1
    76    83    85    1
    77    87    90    1
    78    30    29    1
    79    46    44   ar
    80    44    43    1
    81    57    55    1
    82    55    56    1
    83   125   124    1
    84   125   127   ar
    85   129   127   ar
    86    90    91    1
    87    29    31    1
    88    29    28    1
    89    93    91   ar
    90    93    95   ar
    91    91    92   ar
    92   143   144    1
    93   124   121    1
    94    95    94   ar
    95    92    94   ar
    96   121   122    1
    97   121   120    1
    98   123   122    2
    99    11    10    2
   100     8     9    1
   101    35    34    2
   102   144   145    1
   103   144   147    1
   104   151   149   ar
   105    28    25    1
   106   122   132   am
   107   150   149   ar
   108   145   146    2
   109   149   148    1
   110    10     9    1
   111    10    12   am
   112   147   148    1
   113    23    22    1
   114    34    33    1
   115    20    22   ar
   116    20    18   ar
   117    24    25    1
   118    24    14   am
   119   132   133    1
   120    25    26    1
   121    22    21   ar
   122    18    17   ar
   123   115   116    1
   124    13    12    1
   125    13    14    1
   126    13    16    1
   127   116   117    1
   128   116   119    1
   129   135   134    2
   130    33    32    1
   131    33    36    1
   132    14    15    2
   133   134   133    1
   134   133   136    1
   135    26    27    2
   136    21    19   ar
   137   118   117    2
   138    17    19   ar
   139    17    16    1
   140    32    38    1
   141    36    37    1
   142   136   137    1
   143    38    37    1
   144   137   138   ar
   145   137   139   ar
   146   138   140   ar
   147   139   141   ar
   148   140   142   ar
   149   141   142   ar
