@<TRIPOS>MOLECULE
tmp/1mlyA00.pdb
 128 127 0 0 0
SMALL
GASTEIGER

@<TRIPOS>ATOM
      1  N         -6.7820    0.2410   12.5700 N.2    16  PRO16      -0.2571
      2  CA        -7.6350   -0.8490   13.0370 C.3    16  PRO16       0.2026
      3  C         -7.9160   -1.8960   11.9490 C.2    16  PRO16       0.2683
      4  O         -8.2940   -1.5310   10.8300 O.2    16  PRO16      -0.2709
      5  CB        -8.9340   -0.1430   13.4340 C.2    16  PRO16       0.0085
      6  CG        -8.7180    1.2730   13.3320 C.2    16  PRO16       0.0180
      7  CD        -7.4100    1.5640   12.6990 C.2    16  PRO16       0.0938
      8  N         -7.7270   -3.1690   12.2940 N.am   17  TYR17      -0.1969
      9  CA        -7.9750   -4.3150   11.4110 C.3    17  TYR17       0.1640
     10  C         -7.6210   -4.0910    9.9470 C.2    17  TYR17       0.2290
     11  O         -8.4430   -4.3150    9.0590 O.2    17  TYR17      -0.2864
     12  CB        -9.4140   -4.8040   11.5330 C.3    17  TYR17       0.0560
     13  CG        -9.7010   -5.3930   12.8960 C.ar   17  TYR17      -0.0198
     14  CD1       -9.4960   -6.7420   13.1610 C.ar   17  TYR17      -0.0009
     15  CD2      -10.1580   -4.5910   13.9190 C.ar   17  TYR17      -0.0009
     16  CE1       -9.7610   -7.2670   14.4190 C.ar   17  TYR17       0.0417
     17  CE2      -10.4140   -5.0930   15.1650 C.ar   17  TYR17       0.0417
     18  CZ       -10.2060   -6.4290   15.4240 C.ar   17  TYR17       0.1957
     19  OH       -10.4680   -6.9120   16.6920 O.3    17  TYR17      -0.2866
     20  N        -18.1140    4.9950   14.0940 N.3    52  TRP52      -0.1227
     21  CA       -18.3430    3.6660   14.6290 C.3    52  TRP52       0.1737
     22  C        -19.3870    3.7160   15.7370 C.2    52  TRP52       0.2595
     23  O        -19.2000    3.1730   16.8260 O.2    52  TRP52      -0.2718
     24  CB       -17.0370    3.0090   15.0680 C.3    52  TRP52       0.0564
     25  CG       -16.3640    2.2620   13.9290 C.ar   52  TRP52       0.0003
     26  CD1      -16.9780    1.6530   12.8800 C.ar   52  TRP52       0.0946
     27  CD2      -14.9650    2.0710   13.7330 C.ar   52  TRP52       0.0152
     28  NE1      -16.0520    1.0770   12.0460 N.ar   52  TRP52      -0.2442
     29  CE2      -14.8040    1.3320   12.5390 C.ar   52  TRP52       0.0810
     30  CE3      -13.8250    2.4610   14.4320 C.ar   52  TRP52       0.0012
     31  CZ2      -13.5760    0.9530   12.0650 C.ar   52  TRP52       0.0191
     32  CZ3      -12.6010    2.1020   13.9460 C.ar   52  TRP52       0.0001
     33  CH2      -12.4800    1.3470   12.7710 C.ar   52  TRP52       0.0015
     34  N        -20.4620    4.4380   15.4280 N.am   53  TRP53      -0.1976
     35  CA       -21.7200    4.3980   16.1520 C.3    53  TRP53       0.1640
     36  C        -21.8110    5.2590   17.4310 C.2    53  TRP53       0.2290
     37  O        -22.8810    5.3610   18.0310 O.2    53  TRP53      -0.2864
     38  CB       -22.0690    2.9220   16.4120 C.3    53  TRP53       0.0576
     39  CG       -21.6310    1.9640   15.2660 C.ar   53  TRP53       0.0006
     40  CD1      -21.3060    2.2910   13.9770 C.ar   53  TRP53       0.0946
     41  CD2      -21.4790    0.5380   15.3530 C.ar   53  TRP53       0.0152
     42  NE1      -20.9650    1.1630   13.2630 N.ar   53  TRP53      -0.2442
     43  CE2      -21.0690    0.0730   14.0860 C.ar   53  TRP53       0.0810
     44  CE3      -21.6670   -0.3930   16.3720 C.ar   53  TRP53       0.0012
     45  CZ2      -20.8250   -1.2700   13.8250 C.ar   53  TRP53       0.0191
     46  CZ3      -21.4380   -1.7290   16.1090 C.ar   53  TRP53       0.0001
     47  CH2      -21.0200   -2.1550   14.8440 C.ar   53  TRP53       0.0015
     48  N        -20.3840  -10.3830   18.9830 N.3   144  TYR144     -0.1241
     49  CA       -19.1060   -9.6830   19.0410 C.3   144  TYR144      0.1605
     50  C        -19.0710   -8.7940   20.2710 C.2   144  TYR144      0.2264
     51  O        -19.9710   -7.9720   20.4730 O.2   144  TYR144     -0.2867
     52  CB       -18.8610   -8.8340   17.8030 C.3   144  TYR144      0.0534
     53  CG       -17.5790   -8.0520   17.9460 C.ar  144  TYR144     -0.0201
     54  CD1      -16.3460   -8.6160   17.6220 C.ar  144  TYR144     -0.0009
     55  CD2      -17.6000   -6.7590   18.4460 C.ar  144  TYR144     -0.0009
     56  CE1      -15.1610   -7.8790   17.7820 C.ar  144  TYR144      0.0417
     57  CE2      -16.4460   -6.0350   18.6080 C.ar  144  TYR144      0.0417
     58  CZ       -15.2380   -6.5810   18.2730 C.ar  144  TYR144      0.1957
     59  OH       -14.1150   -5.8000   18.4790 O.3   144  TYR144     -0.2866
     60  N        -21.1880   -5.9780   14.9330 N.3   216  ALA216     -0.1245
     61  CA       -20.0180   -6.2860   14.1170 C.3   216  ALA216      0.1562
     62  C        -20.0530   -7.6980   13.5430 C.2   216  ALA216      0.2260
     63  O        -19.3880   -7.9710   12.5380 O.2   216  ALA216     -0.2867
     64  CB       -18.7410   -6.0560   14.9150 C.3   216  ALA216      0.0290
     65  N        -23.0160   -1.8870   24.4750 N.3   246  ILE246     -0.1231
     66  CA       -22.0250   -0.8990   24.0660 C.3   246  ILE246      0.1692
     67  C        -22.4100   -0.3040   22.7020 C.2   246  ILE246      0.2591
     68  O        -22.1520    0.8640   22.4370 O.2   246  ILE246     -0.2718
     69  CB       -20.6160   -1.5440   24.0360 C.3   246  ILE246      0.0266
     70  CG1      -20.1260   -1.7610   25.4680 C.3   246  ILE246      0.0019
     71  CG2      -19.6300   -0.6800   23.2730 C.3   246  ILE246      0.0020
     72  CD1      -19.1380   -2.9080   25.6080 C.3   246  ILE246      0.0001
     73  N        -23.0260   -1.1040   21.8380 N.am  247  ALA247     -0.1980
     74  CA       -23.4620   -0.6090   20.5290 C.3   247  ALA247      0.1597
     75  C        -24.9330   -0.1690   20.5170 C.2   247  ALA247      0.2287
     76  O        -25.2710    0.8080   19.8630 O.2   247  ALA247     -0.2864
     77  CB       -23.2480   -1.6560   19.4670 C.3   247  ALA247      0.0319
     78  N        -19.2120    3.6370   23.8720 N.3   273  LYS273     -0.1245
     79  CA       -19.4800    4.3740   22.6310 C.3   273  LYS273      0.1561
     80  C        -20.2410    5.6820   22.8550 C.2   273  LYS273      0.2260
     81  O        -19.6500    6.6660   23.2440 O.2   273  LYS273     -0.2867
     82  CB       -20.2200    3.4970   21.6200 C.3   273  LYS273      0.0271
     83  CG       -19.3840    2.3590   21.0450 C.3   273  LYS273      0.0035
     84  CD       -20.1440    1.5940   19.9800 C.3   273  LYS273      0.0206
     85  CE       -19.3870    0.3780   19.4570 C.3   273  LYS273      0.1093
     86  NZ       -18.1780    0.7180   18.6210 N.3   273  LYS273     -0.1314
     87  N        -13.9460   -2.8830   -0.1530 N.3   375  MET375     -0.1245
     88  CA       -14.0060   -1.7510    0.7750 C.3   375  MET375      0.1570
     89  C        -13.2690   -0.5260    0.2400 C.2   375  MET375      0.2261
     90  O        -13.7840    0.5660    0.3620 O.2   375  MET375     -0.2867
     91  CB       -13.5680   -2.1280    2.2040 C.3   375  MET375      0.0387
     92  CG       -13.8690   -1.0350    3.2570 C.3   375  MET375      0.0595
     93  SD       -12.8980   -1.2010    4.7860 S.3   375  MET375     -0.1393
     94  CE       -13.6360   -2.5850    5.5230 C.3   375  MET375      0.0692
     95  N        -18.6000    3.4280    5.6780 N.3   390  ARG390     -0.1245
     96  CA       -17.5820    2.3870    5.7590 C.3   390  ARG390      0.1563
     97  C        -18.2290    1.0100    5.7680 C.2   390  ARG390      0.2260
     98  O        -18.6590    0.5410    6.8070 O.2   390  ARG390     -0.2867
     99  CB       -16.7410    2.5320    7.0260 C.3   390  ARG390      0.0307
    100  CG       -15.3770    1.8150    6.9510 C.3   390  ARG390      0.0489
    101  CD       -14.9800    1.1280    8.2420 C.3   390  ARG390      0.2205
    102  NE       -13.6970    0.4100    8.3300 N.pl3 390  ARG390     -0.0865
    103  CZ       -12.5650    0.6780    7.6890 C.cat 390  ARG390      0.5346
    104  NH1      -12.4620    1.6230    6.7810 N.pl3 390  ARG390      0.1354
    105  NH2      -11.5130   -0.0870    7.9240 N.pl3 390  ARG390      0.1354
    106  N        -18.3140   -3.2250    5.1820 N.3   392  PHE392     -0.1241
    107  CA       -17.3790   -4.3010    5.4630 C.3   392  PHE392      0.1605
    108  C        -18.0840   -5.6350    5.2600 C.2   392  PHE392      0.2264
    109  O        -19.3030   -5.7500    5.4350 O.2   392  PHE392     -0.2867
    110  CB       -16.7730   -4.1800    6.8630 C.3   392  PHE392      0.0534
    111  CG       -17.7090   -4.5550    7.9610 C.ar  392  PHE392     -0.0203
    112  CD1      -18.5280   -3.6030    8.5510 C.ar  392  PHE392     -0.0042
    113  CD2      -17.7670   -5.8600    8.4110 C.ar  392  PHE392     -0.0042
    114  CE1      -19.3960   -3.9640    9.5720 C.ar  392  PHE392     -0.0003
    115  CE2      -18.6280   -6.2190    9.4230 C.ar  392  PHE392     -0.0003
    116  CZ       -19.4440   -5.2710   10.0030 C.ar  392  PHE392     -0.0000
    117  N        -24.0000   -0.4280    5.4600 N.3   397  TYR397     -0.1241
    118  CA       -24.9540   -0.0130    6.4820 C.3   397  TYR397      0.1605
    119  C        -24.7620    1.4110    6.9530 C.2   397  TYR397      0.2264
    120  O        -23.6770    2.0120    6.7920 O.2   397  TYR397     -0.2867
    121  CB       -24.8980   -0.9900    7.6600 C.3   397  TYR397      0.0534
    122  CG       -23.6570   -0.8310    8.5020 C.ar  397  TYR397     -0.0201
    123  CD1      -22.4290   -1.3440    8.0910 C.ar  397  TYR397     -0.0009
    124  CD2      -23.7010   -0.1060    9.6780 C.ar  397  TYR397     -0.0009
    125  CE1      -21.2980   -1.1610    8.8510 C.ar  397  TYR397      0.0417
    126  CE2      -22.5900    0.0790   10.4400 C.ar  397  TYR397      0.0417
    127  CZ       -21.3900   -0.4430   10.0290 C.ar  397  TYR397      0.1957
    128  OH       -20.3060   -0.2270   10.8250 O.3   397  TYR397     -0.2866
@<TRIPOS>BOND
     1    87    88    1
     2    89    90    2
     3    89    88    1
     4    88    91    1
     5    91    92    1
     6    92    93    1
     7    93    94    1
     8   106   107    1
     9   108   109    2
    10   108   107    1
    11   117   118    1
    12   107   110    1
    13    95    96    1
    14    96    97    1
    15    96    99    1
    16    97    98    2
    17   118   119    1
    18   118   121    1
    19   104   103    1
    20   120   119    2
    21   110   111    1
    22   100    99    1
    23   100   101    1
    24   121   122    1
    25   103   105    1
    26   103   102    2
    27   111   113   ar
    28   111   112   ar
    29   123   122   ar
    30   123   125   ar
    31   101   102    1
    32   113   115   ar
    33   122   124   ar
    34   112   114   ar
    35   125   127   ar
    36    11    10    2
    37   115   116   ar
    38   114   116   ar
    39   124   126   ar
    40    10     9    1
    41   127   126   ar
    42   127   128    1
    43     4     3    2
    44     9    12    1
    45     9     8    1
    46    12    13    1
    47     3     8   am
    48     3     2    1
    49    28    29   ar
    50    28    26   ar
    51    31    29   ar
    52    31    33   ar
    53    63    62    2
    54    29    27   ar
    55     1     7    2
    56     1     2    1
    57     7     6    1
    58    33    32   ar
    59    26    25   ar
    60    13    14   ar
    61    13    15   ar
    62     2     5    1
    63    14    16   ar
    64    42    40   ar
    65    42    43   ar
    66     6     5    2
    67    62    61    1
    68    27    25   ar
    69    27    30   ar
    70    45    43   ar
    71    45    47   ar
    72    15    17   ar
    73    25    24    1
    74    32    30   ar
    75    40    39   ar
    76    43    41   ar
    77    20    21    1
    78    61    64    1
    79    61    60    1
    80    16    18   ar
    81    21    24    1
    82    21    22    1
    83    47    46   ar
    84    17    18   ar
    85    39    41   ar
    86    39    38    1
    87    41    44   ar
    88    18    19    1
    89    34    22   am
    90    34    35    1
    91    22    23    2
    92    46    44   ar
    93    35    38    1
    94    35    36    1
    95    36    37    2
    96    54    56   ar
    97    54    53   ar
    98    56    58   ar
    99    52    53    1
   100    52    49    1
   101    53    55   ar
   102    58    59    1
   103    58    57   ar
   104    55    57   ar
   105    86    85    1
   106    48    49    1
   107    49    50    1
   108    85    84    1
   109    77    74    1
   110    76    75    2
   111    84    83    1
   112    50    51    2
   113    75    74    1
   114    74    73    1
   115    83    82    1
   116    82    79    1
   117    73    67   am
   118    68    67    2
   119    79    80    1
   120    79    78    1
   121    67    66    1
   122    80    81    2
   123    71    69    1
   124    69    66    1
   125    69    70    1
   126    66    65    1
   127    70    72    1
