@<TRIPOS>MOLECULE
tmp/1mmbA00.pdb
 161 161 0 0 0
SMALL
GASTEIGER

@<TRIPOS>ATOM
      1  N         31.6260   66.0840   44.0540 N.3    73  ASN73      -0.1225
      2  CA        32.1770   64.8390   44.6310 C.3    73  ASN73       0.1785
      3  C         32.3270   64.9580   46.1190 C.2    73  ASN73       0.2598
      4  O         31.6510   65.7710   46.6960 O.2    73  ASN73      -0.2718
      5  CB        33.4750   64.4130   43.9430 C.3    73  ASN73       0.1169
      6  CG        33.3460   64.4160   42.4290 C.2    73  ASN73       0.2627
      7  OD1       32.6480   63.5850   41.8610 O.2    73  ASN73      -0.2716
      8  ND2       34.0060   65.3600   41.7630 N.am   73  ASN73      -0.0877
      9  N         33.1620   64.1400   46.7550 N.am   74  GLY74      -0.1942
     10  CA        33.3060   64.2320   48.1910 C.3    74  GLY74       0.2014
     11  C         31.9930   63.8170   48.8490 C.2    74  GLY74       0.2639
     12  O         31.4330   62.7880   48.4650 O.2    74  GLY74      -0.2714
     13  N         31.5010   64.5530   49.8530 N.am   75  ILE75      -0.1963
     14  CA        30.2480   64.1420   50.4500 C.3    75  ILE75       0.1727
     15  C         29.0430   64.4430   49.5250 C.2    75  ILE75       0.2616
     16  O         28.9080   65.5620   48.9820 O.2    75  ILE75      -0.2715
     17  CB        30.0410   64.5950   51.9330 C.3    75  ILE75       0.0290
     18  CG1       29.0040   65.6600   52.0440 C.3    75  ILE75       0.0022
     19  CG2       31.2990   65.0830   52.6030 C.3    75  ILE75       0.0023
     20  CD1       28.7290   65.9230   53.4640 C.3    75  ILE75       0.0001
     21  N         28.2570   63.3890   49.2620 N.am   76  LEU76      -0.1963
     22  CA        27.0810   63.4240   48.3760 C.3    76  LEU76       0.1728
     23  C         25.7360   63.8610   48.9980 C.2    76  LEU76       0.2616
     24  O         24.9040   64.4780   48.3110 O.2    76  LEU76      -0.2715
     25  CB        26.8930   62.0510   47.7120 C.3    76  LEU76       0.0311
     26  CG        27.7070   61.6000   46.4890 C.3    76  LEU76       0.0022
     27  CD1       29.0270   62.2960   46.3460 C.3    76  LEU76       0.0001
     28  CD2       27.8880   60.1100   46.5690 C.3    76  LEU76       0.0001
     29  N         25.5470   63.5490   50.2790 N.am   77  ALA77      -0.1963
     30  CA        24.2890   63.8290   50.9750 C.3    77  ALA77       0.1728
     31  C         24.4470   63.3830   52.3700 C.2    77  ALA77       0.2616
     32  O         25.4400   62.7500   52.6790 O.2    77  ALA77      -0.2715
     33  CB        23.1500   62.9960   50.3610 C.3    77  ALA77       0.0334
     34  N         23.4550   63.7110   53.1990 N.am   78  HIS78      -0.1959
     35  CA        23.3840   63.2860   54.6000 C.3    78  HIS78       0.1787
     36  C         21.9580   63.2730   55.1420 C.2    78  HIS78       0.2620
     37  O         21.0810   63.9160   54.5730 O.2    78  HIS78      -0.2715
     38  CB        24.3450   64.0320   55.5540 C.3    78  HIS78       0.0785
     39  CG        24.1730   65.5160   55.6000 C.ar   78  HIS78       0.0821
     40  ND1       25.1810   66.4140   55.3270 N.ar   78  HIS78      -0.2267
     41  CD2       23.0950   66.2660   55.9420 C.ar   78  HIS78       0.1154
     42  CE1       24.7010   67.6500   55.5080 C.ar   78  HIS78       0.1986
     43  NE2       23.4370   67.6130   55.8830 N.ar   78  HIS78      -0.2212
     44  N         21.7440   62.5570   56.2400 N.am   79  ALA79      -0.1977
     45  CA        20.4350   62.4110   56.8380 C.3    79  ALA79       0.1597
     46  C         20.5080   62.3670   58.3510 C.2    79  ALA79       0.2287
     47  O         21.5350   62.0020   58.9120 O.2    79  ALA79      -0.2864
     48  CB        19.7650   61.1740   56.2990 C.3    79  ALA79       0.0319
     49  N         26.0430   60.6010   39.5500 N.3   105  TYR105     -0.1241
     50  CA        25.7130   59.7310   40.6800 C.3   105  TYR105      0.1605
     51  C         24.2320   59.3550   40.6480 C.2   105  TYR105      0.2264
     52  O         23.3760   60.2000   40.3720 O.2   105  TYR105     -0.2867
     53  CB        25.9910   60.4070   42.0250 C.3   105  TYR105      0.0534
     54  CG        27.4630   60.5940   42.3680 C.ar  105  TYR105     -0.0201
     55  CD1       28.0710   61.8350   42.1550 C.ar  105  TYR105     -0.0009
     56  CD2       28.2000   59.5350   42.9050 C.ar  105  TYR105     -0.0009
     57  CE1       29.4180   62.0190   42.4740 C.ar  105  TYR105      0.0417
     58  CE2       29.5480   59.7150   43.2270 C.ar  105  TYR105      0.0417
     59  CZ        30.1440   60.9560   43.0110 C.ar  105  TYR105      0.1957
     60  OH        31.4730   61.1340   43.3360 O.3   105  TYR105     -0.2866
     61  N         20.0320   55.0640   44.4110 N.3   109  LEU109     -0.1231
     62  CA        20.9460   54.3900   45.3580 C.3   109  LEU109      0.1693
     63  C         21.3940   55.3190   46.5190 C.2   109  LEU109      0.2591
     64  O         21.4890   54.8820   47.6650 O.2   109  LEU109     -0.2718
     65  CB        22.1790   53.8240   44.6090 C.3   109  LEU109      0.0284
     66  CG        21.9560   52.7080   43.5800 C.3   109  LEU109      0.0019
     67  CD1       23.1230   52.5960   42.6190 C.3   109  LEU109      0.0001
     68  CD2       21.7170   51.4000   44.3070 C.3   109  LEU109      0.0001
     69  N         21.6770   56.5910   46.2340 N.am  110  VAL110     -0.1980
     70  CA        22.1070   57.5170   47.2860 C.3   110  VAL110      0.1595
     71  C         20.8940   57.7550   48.2070 C.2   110  VAL110      0.2287
     72  O         21.0120   57.7540   49.4500 O.2   110  VAL110     -0.2864
     73  CB        22.6400   58.8860   46.6920 C.3   110  VAL110      0.0276
     74  CG1       22.9790   59.8980   47.8120 C.3   110  VAL110      0.0022
     75  CG2       23.8520   58.6530   45.8180 C.3   110  VAL110      0.0022
     76  N         20.3080   54.9310   50.6510 N.3   113  HIS113     -0.1226
     77  CA        21.3010   54.9670   51.7740 C.3   113  HIS113      0.1752
     78  C         20.8800   55.9650   52.8590 C.2   113  HIS113      0.2595
     79  O         20.9040   55.6540   54.0560 O.2   113  HIS113     -0.2718
     80  CB        22.7460   55.3060   51.2400 C.3   113  HIS113      0.0759
     81  CG        23.7990   55.4600   52.3070 C.ar  113  HIS113      0.0818
     82  ND1       24.6290   54.4480   52.7360 N.ar  113  HIS113     -0.2268
     83  CD2       24.1380   56.5440   53.0570 C.ar  113  HIS113      0.1154
     84  CE1       25.4200   54.9380   53.7150 C.ar  113  HIS113      0.1986
     85  NE2       25.1690   56.2130   53.9540 N.ar  113  HIS113     -0.2212
     86  N         20.5250   57.1770   52.4330 N.am  114  GLU114     -0.1979
     87  CA        20.1020   58.2240   53.3820 C.3   114  GLU114      0.1602
     88  C         18.8850   57.8210   54.2030 C.2   114  GLU114      0.2287
     89  O         18.8630   58.0000   55.4270 O.2   114  GLU114     -0.2864
     90  CB        19.8520   59.5610   52.6710 C.3   114  GLU114      0.0415
     91  CG        21.0810   60.1800   51.9830 C.3   114  GLU114      0.1163
     92  CD        22.3720   60.0360   52.7890 C.2   114  GLU114      0.3649
     93  OE1       23.4120   59.7280   52.1700 O.co2 114  GLU114     -0.2457
     94  OE2       22.3580   60.2210   54.0170 O.co2 114  GLU114     -0.2457
     95  N         19.4350   55.9440   57.3190 N.3   117  HIS117     -0.1241
     96  CA        19.7560   56.8050   58.4790 C.3   117  HIS117      0.1621
     97  C         18.5020   57.4460   59.1320 C.2   117  HIS117      0.2264
     98  O         18.4020   57.5380   60.3670 O.2   117  HIS117     -0.2867
     99  CB        20.7220   57.9610   58.0670 C.3   117  HIS117      0.0745
    100  CG        22.1220   57.5270   57.7460 C.ar  117  HIS117      0.0817
    101  ND1       22.8990   56.7310   58.5700 N.ar  117  HIS117     -0.2268
    102  CD2       22.9060   57.8200   56.6720 C.ar  117  HIS117      0.1154
    103  CE1       24.1010   56.5680   57.9880 C.ar  117  HIS117      0.1986
    104  NE2       24.1710   57.2100   56.8320 N.ar  117  HIS117     -0.2212
    105  N         26.2310   53.1070   59.8350 N.3   123  HIS123     -0.1241
    106  CA        26.9950   52.4860   58.7600 C.3   123  HIS123      0.1621
    107  C         27.3970   51.0550   59.0790 C.2   123  HIS123      0.2264
    108  O         27.5690   50.6920   60.2280 O.2   123  HIS123     -0.2867
    109  CB        28.2550   53.2910   58.4370 C.3   123  HIS123      0.0745
    110  CG        27.9640   54.5630   57.7310 C.ar  123  HIS123      0.0817
    111  ND1       28.6290   55.7430   57.9540 N.ar  123  HIS123     -0.2268
    112  CD2       27.0120   54.8430   56.8080 C.ar  123  HIS123      0.1154
    113  CE1       28.0670   56.6740   57.1800 C.ar  123  HIS123      0.1986
    114  NE2       27.0790   56.1640   56.4650 N.ar  123  HIS123     -0.2212
    115  N         24.1680   48.0420   51.6920 N.3   130  LEU130     -0.1245
    116  CA        23.7450   49.3680   51.2190 C.3   130  LEU130      0.1561
    117  C         24.2030   50.4300   52.2400 C.2   130  LEU130      0.2260
    118  O         24.5550   51.5290   51.8620 O.2   130  LEU130     -0.2867
    119  CB        22.2240   49.4380   51.0690 C.3   130  LEU130      0.0270
    120  CG        21.5720   50.7370   50.5970 C.3   130  LEU130      0.0019
    121  CD1       21.9100   51.0430   49.1430 C.3   130  LEU130      0.0001
    122  CD2       20.0670   50.6170   50.7590 C.3   130  LEU130      0.0001
    123  N         27.0010   50.7410   53.7950 N.3   132  TYR132     -0.1228
    124  CA        28.4540   50.9320   53.7150 C.3   132  TYR132      0.1721
    125  C         28.6850   52.4380   53.3870 C.2   132  TYR132      0.2437
    126  O         28.0320   52.9720   52.5020 O.2   132  TYR132     -0.2733
    127  CB        28.9690   50.0540   52.5740 C.3   132  TYR132      0.0547
    128  CG        30.4570   49.8530   52.5880 C.ar  132  TYR132     -0.0200
    129  CD1       31.2490   50.3760   51.5580 C.ar  132  TYR132     -0.0009
    130  CD2       31.0910   49.1530   53.6550 C.ar  132  TYR132     -0.0009
    131  CE1       32.6400   50.2210   51.5690 C.ar  132  TYR132      0.0417
    132  CE2       32.4820   48.9880   53.6780 C.ar  132  TYR132      0.0417
    133  CZ        33.2440   49.5340   52.6200 C.ar  132  TYR132      0.1957
    134  OH        34.6130   49.4170   52.5860 O.3   132  TYR132     -0.2866
    135  N         29.6790   53.0950   54.0320 N.am  133  PRO133     -0.2718
    136  CA        30.0200   54.5270   53.8600 C.3   133  PRO133      0.1535
    137  C         30.3660   55.0710   52.4820 C.2   133  PRO133      0.2599
    138  O         30.1610   56.2530   52.2360 O.2   133  PRO133     -0.2715
    139  CB        31.1980   54.7400   54.8270 C.3   133  PRO133      0.0310
    140  CG        31.0740   53.6440   55.8310 C.3   133  PRO133      0.0237
    141  CD        30.6350   52.4620   54.9640 C.3   133  PRO133      0.0939
    142  N         30.9130   54.2480   51.5880 N.am  134  ASN134     -0.1959
    143  CA        31.2970   54.7190   50.2540 C.3   134  ASN134      0.1819
    144  C         30.2860   54.2850   49.2270 C.2   134  ASN134      0.2621
    145  O         29.8000   53.1570   49.2840 O.2   134  ASN134     -0.2715
    146  CB        32.6940   54.1860   49.8460 C.3   134  ASN134      0.1195
    147  CG        33.8440   54.9380   50.5150 C.2   134  ASN134      0.2630
    148  OD1       34.7520   54.3240   51.0980 O.2   134  ASN134     -0.2716
    149  ND2       33.8410   56.2570   50.3940 N.am  134  ASN134     -0.0877
    150  N         29.9780   55.1810   48.2970 N.am  135  TYR135     -0.1974
    151  CA        29.0230   54.9420   47.2340 C.3   135  TYR135      0.1639
    152  C         29.6050   53.9730   46.2160 C.2   135  TYR135      0.2290
    153  O         30.7740   54.0800   45.8740 O.2   135  TYR135     -0.2864
    154  CB        28.6880   56.2730   46.5430 C.3   135  TYR135      0.0560
    155  CG        28.0230   56.1520   45.1830 C.ar  135  TYR135     -0.0198
    156  CD1       28.7830   55.9940   44.0150 C.ar  135  TYR135     -0.0009
    157  CD2       26.6470   56.1710   45.0490 C.ar  135  TYR135     -0.0009
    158  CE1       28.1710   55.8550   42.7550 C.ar  135  TYR135      0.0417
    159  CE2       26.0310   56.0400   43.7790 C.ar  135  TYR135      0.0417
    160  CZ        26.7920   55.8870   42.6570 C.ar  135  TYR135      0.1957
    161  OH        26.1870   55.8070   41.4280 O.3   135  TYR135     -0.2866
@<TRIPOS>BOND
     1    49    50    1
     2    52    51    2
     3    51    50    1
     4    50    53    1
     5   161   160    1
     6     8     6   am
     7     7     6    2
     8    53    54    1
     9    55    54   ar
    10    55    57   ar
    11    54    56   ar
    12     6     5    1
    13    57    59   ar
    14    67    66    1
    15   160   158   ar
    16   160   159   ar
    17   158   156   ar
    18    56    58   ar
    19    59    58   ar
    20    59    60    1
    21    66    68    1
    22    66    65    1
    23   159   157   ar
    24     5     2    1
    25   156   155   ar
    26     1     2    1
    27    61    62    1
    28    65    62    1
    29     2     3    1
    30   157   155   ar
    31   155   154    1
    32    62    63    1
    33    75    73    1
    34   153   152    2
    35     3     4    2
    36     3     9   am
    37   152   151    1
    38    69    63   am
    39    69    70    1
    40    27    26    1
    41    26    28    1
    42    26    25    1
    43    63    64    2
    44   154   151    1
    45    73    70    1
    46    73    74    1
    47     9    10    1
    48   151   150    1
    49    70    71    1
    50    25    22    1
    51    10    11    1
    52    71    72    2
    53   150   144   am
    54    24    23    2
    55    22    23    1
    56    22    21    1
    57    12    11    2
    58    11    13   am
    59    16    15    2
    60    23    29   am
    61   121   120    1
    62   144   145    2
    63   144   143    1
    64    21    15   am
    65    15    14    1
    66   146   143    1
    67   146   147    1
    68    13    14    1
    69   143   142    1
    70    29    30    1
    71    33    30    1
    72   149   147   am
    73    14    17    1
    74   147   148    2
    75   120   122    1
    76   120   119    1
    77    76    77    1
    78    30    31    1
    79   119   116    1
    80   116   115    1
    81   116   117    1
    82    80    77    1
    83    80    81    1
    84   129   131   ar
    85   129   128   ar
    86   131   133   ar
    87   142   137   am
    88    77    78    1
    89   118   117    2
    90    17    18    1
    91    17    19    1
    92    91    90    1
    93    91    92    1
    94    18    20    1
    95    93    92   ar
    96   138   137    2
    97    81    82   ar
    98    81    83   ar
    99    31    32    2
   100    31    34   am
   101    86    78   am
   102    86    87    1
   103   137   136    1
   104   126   125    2
   105   127   128    1
   106   127   124    1
   107   134   133    1
   108   128   130   ar
   109   133   132   ar
   110    90    87    1
   111    82    84   ar
   112    92    94   ar
   113    78    79    2
   114    83    85   ar
   115    34    35    1
   116    87    88    1
   117   125   124    1
   118   125   135   am
   119   130   132   ar
   120    84    85   ar
   121   124   123    1
   122   136   135    1
   123   136   139    1
   124   135   141    1
   125    88    89    2
   126    37    36    2
   127    35    36    1
   128    35    38    1
   129   139   140    1
   130   141   140    1
   131    36    44   am
   132    40    42   ar
   133    40    39   ar
   134    42    43   ar
   135    38    39    1
   136    39    41   ar
   137    43    41   ar
   138    44    45    1
   139    48    45    1
   140   114   112   ar
   141   114   113   ar
   142   102   104   ar
   143   102   100   ar
   144   112   110   ar
   145   104   103   ar
   146    45    46    1
   147   113   111   ar
   148    95    96    1
   149   110   111   ar
   150   110   109    1
   151   100    99    1
   152   100   101   ar
   153   103   101   ar
   154    99    96    1
   155    46    47    2
   156   109   106    1
   157    96    97    1
   158   106   107    1
   159   106   105    1
   160   107   108    2
   161    97    98    2
