@<TRIPOS>MOLECULE
tmp/1mmjA00.pdb
 161 155 0 0 0
SMALL
GASTEIGER

@<TRIPOS>ATOM
      1  N         -0.6740   25.5590   32.7010 N.3    29  THR29      -0.1203
      2  CA        -1.8820   24.7620   32.9880 C.3    29  THR29       0.1994
      3  C         -2.5890   25.1190   34.4140 C.2    29  THR29       0.2618
      4  O         -3.7570   24.8680   34.6840 O.2    29  THR29      -0.2717
      5  CB        -1.6900   23.2290   33.2620 C.3    29  THR29       0.1784
      6  OG1       -0.3790   23.2400   34.0390 O.3    29  THR29      -0.2211
      7  CG2       -1.9090   22.1330   32.2280 C.3    29  THR29       0.0376
      8  N         -1.8230   25.7230   35.2790 N.am   30  CYS30      -0.1969
      9  CA        -2.4470   26.1290   36.5790 C.3    30  CYS30       0.1712
     10  C         -1.6890   27.2370   37.1340 C.2    30  CYS30       0.2296
     11  O         -0.5830   27.6020   36.6280 O.2    30  CYS30      -0.2864
     12  CB        -2.2090   24.9220   37.5900 C.3    30  CYS30       0.0983
     13  SG        -3.3060   23.4670   37.2250 S.3    30  CYS30      -0.0798
     14  N         -4.0950   18.0390   41.9450 N.3    45  HIS45      -0.1241
     15  CA        -4.4720   17.4300   40.6310 C.3    45  HIS45       0.1621
     16  C         -3.7660   18.2340   39.4540 C.2    45  HIS45       0.2264
     17  O         -4.0100   17.8600   38.3700 O.2    45  HIS45      -0.2867
     18  CB        -5.9480   17.4320   40.3690 C.3    45  HIS45       0.0745
     19  CG        -6.4260   18.8640   40.1110 C.ar   45  HIS45       0.0817
     20  ND1       -7.1070   19.6230   41.0450 N.ar   45  HIS45      -0.2268
     21  CD2       -6.4430   19.5410   38.8740 C.ar   45  HIS45       0.1154
     22  CE1       -7.5710   20.8060   40.4470 C.ar   45  HIS45       0.1986
     23  NE2       -7.1520   20.7310   39.1460 N.ar   45  HIS45      -0.2212
     24  N          0.2090   13.8400   36.5470 N.3    49  ARG49      -0.1245
     25  CA         0.2610   13.6040   35.1800 C.3    49  ARG49       0.1563
     26  C          1.7390   13.4140   34.7300 C.2    49  ARG49       0.2260
     27  O          2.6530   14.0500   35.2350 O.2    49  ARG49      -0.2867
     28  CB        -0.5050   14.8350   34.6640 C.3    49  ARG49       0.0307
     29  CG        -0.8590   15.9300   35.6830 C.3    49  ARG49       0.0489
     30  CD        -2.0790   16.8360   35.5020 C.3    49  ARG49       0.2205
     31  NE        -1.5370   17.8680   34.6210 N.pl3  49  ARG49      -0.0865
     32  CZ        -1.7370   19.2390   34.6190 C.cat  49  ARG49       0.5346
     33  NH1       -2.9680   19.6860   34.7960 N.pl3  49  ARG49       0.1354
     34  NH2       -0.7390   20.1240   34.4660 N.pl3  49  ARG49       0.1354
     35  N        -10.9250   11.1870   43.0460 N.3    87  ASP87      -0.1225
     36  CA       -11.8830   11.7230   44.0370 C.3    87  ASP87       0.1805
     37  C        -11.5310   13.2000   44.4510 C.2    87  ASP87       0.2598
     38  O        -11.0990   13.5000   45.5550 O.2    87  ASP87      -0.2718
     39  CB       -11.8410   10.6450   45.1580 C.3    87  ASP87       0.1424
     40  CG       -13.0430   10.6090   46.0520 C.2    87  ASP87       0.3668
     41  OD1      -13.9630   11.4280   45.9240 O.co2  87  ASP87      -0.2456
     42  OD2      -13.0960    9.7200   46.9640 O.co2  87  ASP87      -0.2456
     43  N        -11.7240   14.2080   43.5550 N.am   88  VAL88      -0.1966
     44  CA       -11.4500   15.5930   44.0850 C.3    88  VAL88       0.1727
     45  C        -12.2700   15.9240   45.3470 C.2    88  VAL88       0.2616
     46  O        -11.9360   16.7830   46.1600 O.2    88  VAL88      -0.2715
     47  CB       -11.6720   16.8580   43.1990 C.3    88  VAL88       0.0290
     48  CG1      -10.3620   17.4210   42.6840 C.3    88  VAL88       0.0023
     49  CG2      -12.9210   16.9040   42.3030 C.3    88  VAL88       0.0023
     50  N        -13.4000   15.2020   45.4310 N.am   89  ALA89      -0.1977
     51  CA       -14.2300   15.6120   46.5200 C.3    89  ALA89       0.1597
     52  C        -13.9320   15.0410   47.8810 C.2    89  ALA89       0.2287
     53  O        -14.3830   15.5330   48.8860 O.2    89  ALA89      -0.2864
     54  CB       -15.6650   15.4960   46.1640 C.3    89  ALA89       0.0319
     55  N        -23.4490   23.0980   48.2050 N.3   164  TRP164     -0.1241
     56  CA       -22.7670   21.9030   47.6500 C.3   164  TRP164      0.1605
     57  C        -23.2070   20.4990   48.1390 C.2   164  TRP164      0.2264
     58  O        -22.7820   19.3780   47.7990 O.2   164  TRP164     -0.2867
     59  CB       -21.2370   22.0440   47.6730 C.3   164  TRP164      0.0550
     60  CG       -20.6950   22.8200   46.4710 C.ar  164  TRP164      0.0003
     61  CD1      -20.2270   24.1190   46.4480 C.ar  164  TRP164      0.0946
     62  CD2      -20.4270   22.3660   45.1410 C.ar  164  TRP164      0.0152
     63  NE1      -19.7160   24.4350   45.1810 N.ar  164  TRP164     -0.2442
     64  CE2      -19.8190   23.3920   44.3860 C.ar  164  TRP164      0.0810
     65  CE3      -20.4640   21.0590   44.6080 C.ar  164  TRP164      0.0012
     66  CZ2      -19.2690   23.1890   43.1250 C.ar  164  TRP164      0.0191
     67  CZ3      -19.9040   20.8830   43.3540 C.ar  164  TRP164      0.0001
     68  CH2      -19.3350   21.8660   42.6010 C.ar  164  TRP164      0.0015
     69  N        -23.0230   17.8060   50.3440 N.3   166  SER166     -0.1202
     70  CA       -22.1880   16.7750   50.9920 C.3   166  SER166      0.2020
     71  C        -20.8170   16.8230   50.3980 C.2   166  SER166      0.2619
     72  O        -19.8380   16.1620   50.8060 O.2   166  SER166     -0.2717
     73  CB       -22.5240   15.2720   50.6320 C.3   166  SER166      0.2103
     74  OG       -21.7330   14.4430   51.5900 O.3   166  SER166     -0.2182
     75  N        -20.8460   17.5400   49.3160 N.am  167  THR167     -0.1952
     76  CA       -19.6460   17.2340   48.6070 C.3   167  THR167      0.1897
     77  C        -18.5250   18.0800   49.0300 C.2   167  THR167      0.2313
     78  O        -17.3850   17.8100   48.8740 O.2   167  THR167     -0.2863
     79  CB       -19.7680   17.2760   47.0470 C.3   167  THR167      0.1794
     80  OG1      -19.0160   18.3480   46.3760 O.3   167  THR167     -0.2208
     81  CG2      -21.1800   17.1420   46.5130 C.3   167  THR167      0.0378
     82  N        -12.3330   29.2200   37.2640 N.3   184  CYS184     -0.1221
     83  CA       -12.6440   28.3880   36.0540 C.3   184  CYS184      0.1808
     84  C        -11.3840   27.5850   35.5810 C.2   184  CYS184      0.2601
     85  O        -10.3110   27.8460   36.1190 O.2   184  CYS184     -0.2717
     86  CB       -12.9660   29.2440   34.7670 C.3   184  CYS184      0.0970
     87  SG       -14.1680   28.4880   33.6950 S.3   184  CYS184     -0.0800
     88  N        -11.4210   26.7660   34.5270 N.am  185  GLN185     -0.1965
     89  CA       -10.1740   25.8940   34.3770 C.3   185  GLN185      0.1733
     90  C         -8.9080   26.7300   34.0070 C.2   185  GLN185      0.2616
     91  O         -8.9780   27.7870   33.3440 O.2   185  GLN185     -0.2715
     92  CB       -10.2660   24.7710   33.2690 C.3   185  GLN185      0.0408
     93  CG       -11.6880   24.8250   32.6080 C.3   185  GLN185      0.0908
     94  CD       -12.8440   24.4190   33.4540 C.2   185  GLN185      0.2608
     95  OE1      -12.9380   23.4420   34.1490 O.2   185  GLN185     -0.2717
     96  NE2      -13.6830   25.3680   33.5840 N.am  185  GLN185     -0.0878
     97  N         -7.7890   26.2700   34.5030 N.am  186  GLY186     -0.1955
     98  CA        -6.5000   27.1220   34.4350 C.3   186  GLY186      0.1869
     99  C         -6.3570   28.0650   35.6710 C.2   186  GLY186      0.2309
    100  O         -5.2930   28.5400   35.9030 O.2   186  GLY186     -0.2863
    101  N         -7.1010   26.6250   38.6690 N.3   188  SER188     -0.1217
    102  CA        -6.6620   25.5840   39.6350 C.3   188  SER188      0.1889
    103  C         -5.2360   25.6810   40.2130 C.2   188  SER188      0.2288
    104  O         -4.3190   26.0570   39.4770 O.2   188  SER188     -0.2866
    105  CB        -6.5750   24.2060   39.0510 C.3   188  SER188      0.2089
    106  OG        -7.9590   23.8620   38.7680 O.3   188  SER188     -0.2183
    107  N         -7.1270   26.9270   44.8060 N.3   206  THR206     -0.1203
    108  CA        -8.2550   26.6390   43.9760 C.3   206  THR206      0.1994
    109  C         -8.3310   25.1140   43.5170 C.2   206  THR206      0.2619
    110  O         -7.3550   24.4790   43.0910 O.2   206  THR206     -0.2717
    111  CB        -8.2790   27.4770   42.8230 C.3   206  THR206      0.1784
    112  OG1       -8.0310   28.9250   43.0940 O.3   206  THR206     -0.2211
    113  CG2       -9.5980   27.3040   41.9860 C.3   206  THR206      0.0376
    114  N         -9.5250   24.5530   43.7590 N.am  207  SER207     -0.1937
    115  CA        -9.6150   23.1020   43.5690 C.3   207  SER207      0.2055
    116  C        -10.5060   22.7260   42.4570 C.2   207  SER207      0.2643
    117  O        -10.0250   22.0680   41.4760 O.2   207  SER207     -0.2714
    118  CB        -9.9590   22.4020   44.9160 C.3   207  SER207      0.2130
    119  OG        -9.8560   20.9880   44.7500 O.3   207  SER207     -0.2179
    120  N        -11.8020   23.1380   42.6420 N.am  208  PHE208     -0.1959
    121  CA       -12.9090   22.6520   41.8380 C.3   208  PHE208      0.1771
    122  C        -14.1570   23.5920   41.7820 C.2   208  PHE208      0.2619
    123  O        -14.4570   24.4780   42.5610 O.2   208  PHE208     -0.2715
    124  CB       -13.1590   21.1230   42.0890 C.3   208  PHE208      0.0574
    125  CG       -13.9240   20.8100   43.3400 C.ar  208  PHE208     -0.0200
    126  CD1      -13.2620   20.4390   44.5010 C.ar  208  PHE208     -0.0042
    127  CD2      -15.3760   20.9380   43.3950 C.ar  208  PHE208     -0.0042
    128  CE1      -13.9370   20.2130   45.7560 C.ar  208  PHE208     -0.0003
    129  CE2      -16.0410   20.6790   44.6940 C.ar  208  PHE208     -0.0003
    130  CZ       -15.3250   20.3090   45.8520 C.ar  208  PHE208     -0.0000
    131  N        -14.7540   23.4940   40.5820 N.am  209  VAL209     -0.1963
    132  CA       -16.0670   24.0610   40.3800 C.3   209  VAL209      0.1727
    133  C        -17.0050   23.0440   39.7590 C.2   209  VAL209      0.2617
    134  O        -16.6240   21.8730   39.5910 O.2   209  VAL209     -0.2715
    135  CB       -16.0030   25.1270   39.3800 C.3   209  VAL209      0.0290
    136  CG1      -15.4350   26.3450   40.1150 C.3   209  VAL209      0.0023
    137  CG2      -15.6690   24.7050   37.9100 C.3   209  VAL209      0.0023
    138  N        -18.2360   23.5130   39.4460 N.am  210  SER210     -0.1936
    139  CA       -19.3120   22.4240   39.3120 C.3   210  SER210      0.2055
    140  C        -19.3380   21.8990   37.8740 C.2   210  SER210      0.2642
    141  O        -18.8590   22.5270   36.9580 O.2   210  SER210     -0.2714
    142  CB       -20.7100   22.9550   39.7360 C.3   210  SER210      0.2130
    143  OG       -21.5320   23.0960   38.5460 O.3   210  SER210     -0.2179
    144  N        -19.8720   20.6290   37.6380 N.am  211  ARG211     -0.1977
    145  CA       -20.0090   20.2620   36.1880 C.3   211  ARG211      0.1597
    146  C        -20.9950   20.9900   35.3220 C.2   211  ARG211      0.2287
    147  O        -20.8940   20.9520   34.0530 O.2   211  ARG211     -0.2864
    148  CB       -19.9660   18.7600   35.8070 C.3   211  ARG211      0.0334
    149  CG       -19.1960   18.0840   36.9220 C.3   211  ARG211      0.0492
    150  CD       -19.9630   17.0380   37.6670 C.3   211  ARG211      0.2205
    151  NE       -19.3870   15.7310   37.2310 N.pl3 211  ARG211     -0.0865
    152  CZ       -18.4930   14.9790   38.0530 C.cat 211  ARG211      0.5346
    153  NH1      -17.1540   15.0410   37.8460 N.pl3 211  ARG211      0.1354
    154  NH2      -18.9780   14.1720   39.0270 N.pl3 211  ARG211      0.1354
    155  N        -17.0420   28.4640   43.9120 N.3   221  THR221     -0.1218
    156  CA       -15.6950   27.8500   43.7110 C.3   221  THR221      0.1862
    157  C        -15.1680   27.2230   44.9400 C.2   221  THR221      0.2287
    158  O        -15.3700   27.7320   46.0530 O.2   221  THR221     -0.2866
    159  CB       -14.6720   28.8600   43.1790 C.3   221  THR221      0.1770
    160  OG1      -15.3080   29.5620   42.0600 O.3   221  THR221     -0.2211
    161  CG2      -13.4090   28.3000   42.5630 C.3   221  THR221      0.0375
@<TRIPOS>BOND
     1     7     5    1
     2    93    92    1
     3    93    94    1
     4     1     2    1
     5     2     5    1
     6     2     3    1
     7     5     6    1
     8    92    89    1
     9    91    90    2
    10    94    96   am
    11    94    95    2
    12    87    86    1
    13    90    89    1
    14    90    97   am
    15   147   146    2
    16    89    88    1
    17     3     4    2
    18     3     8   am
    19    98    97    1
    20    98    99    1
    21    34    32    1
    22    88    84   am
    23    32    31    2
    24    32    33    1
    25    31    30    1
    26    28    25    1
    27    28    29    1
    28    26    25    1
    29    26    27    2
    30    86    83    1
    31    25    24    1
    32     8     9    1
    33   146   145    1
    34    30    29    1
    35    84    83    1
    36    84    85    2
    37    99   100    2
    38   148   145    1
    39   148   149    1
    40    83    82    1
    41   145   144    1
    42     9    10    1
    43     9    12    1
    44    11    10    2
    45   149   150    1
    46   141   140    2
    47    13    12    1
    48   151   150    1
    49   151   152    2
    50   144   140   am
    51   153   152    1
    52   140   139    1
    53   137   135    1
    54   152   154    1
    55    17    16    2
    56   143   142    1
    57   101   102    1
    58   106   105    1
    59    21    23   ar
    60    21    19   ar
    61   105   102    1
    62    23    22   ar
    63   139   138    1
    64   139   142    1
    65   135   136    1
    66   135   132    1
    67   138   133   am
    68    16    15    1
    69   104   103    2
    70   134   133    2
    71   102   103    1
    72   133   132    1
    73    19    18    1
    74    19    20   ar
    75    18    15    1
    76   132   131    1
    77    22    20   ar
    78   131   122   am
    79    15    14    1
    80   117   116    2
    81   122   121    1
    82   122   123    2
    83   121   124    1
    84   121   120    1
    85   113   111    1
    86   160   159    1
    87   124   125    1
    88    49    47    1
    89   116   120   am
    90   116   115    1
    91   161   159    1
    92    68    66   ar
    93    68    67   ar
    94    48    47    1
    95   111   112    1
    96   111   108    1
    97    35    36    1
    98   110   109    2
    99    66    64   ar
   100   159   156    1
   101    47    44    1
   102   125   127   ar
   103   125   126   ar
   104    67    65   ar
   105   127   129   ar
   106   109   114   am
   107   109   108    1
   108    43    44    1
   109    43    37   am
   110   115   114    1
   111   115   118    1
   112   156   155    1
   113   156   157    1
   114   108   107    1
   115    36    37    1
   116    36    39    1
   117    44    45    1
   118    64    62   ar
   119    64    63   ar
   120    37    38    2
   121   126   128   ar
   122    65    62   ar
   123   129   130   ar
   124   119   118    1
   125   157   158    2
   126    62    60   ar
   127    39    40    1
   128    63    61   ar
   129    45    50   am
   130    45    46    2
   131    50    51    1
   132   128   130   ar
   133    41    40   ar
   134    40    42   ar
   135    54    51    1
   136    80    79    1
   137    61    60   ar
   138    60    59    1
   139    81    79    1
   140    51    52    1
   141    79    76    1
   142    56    59    1
   143    56    57    1
   144    56    55    1
   145    58    57    2
   146    52    53    2
   147    76    77    1
   148    76    75    1
   149    78    77    2
   150    75    71   am
   151    69    70    1
   152    71    72    2
   153    71    70    1
   154    73    70    1
   155    73    74    1
