@<TRIPOS>MOLECULE
tmp/1mmpA00.pdb
 152 152 0 0 0
SMALL
GASTEIGER

@<TRIPOS>ATOM
      1  N         27.7680   23.4070   17.4500 N.3    76  ASP76      -0.1239
      2  CA        27.9410   22.8550   16.1090 C.3    76  ASP76       0.1674
      3  C         28.8290   21.6220   15.9780 C.2    76  ASP76       0.2266
      4  O         29.4070   21.4010   14.9110 O.2    76  ASP76      -0.2867
      5  CB        28.4960   24.0380   15.2730 C.3    76  ASP76       0.1410
      6  CG        29.8010   24.5600   15.9150 C.2    76  ASP76       0.3668
      7  OD1       30.3200   24.0080   16.9010 O.co2  76  ASP76      -0.2456
      8  OD2       30.3410   25.5670   15.4810 O.co2  76  ASP76      -0.2456
      9  N         35.1030   21.1190   16.8390 N.3    79  GLY79      -0.1210
     10  CA        35.7120   22.2640   16.1610 C.3    79  GLY79       0.1956
     11  C         34.7800   23.4440   16.0000 C.2    79  GLY79       0.2612
     12  O         33.7030   23.4930   16.6110 O.2    79  GLY79      -0.2717
     13  N         35.2250   24.4370   15.2270 N.am   80  ASN80      -0.1960
     14  CA        34.4840   25.6800   14.9690 C.3    80  ASN80       0.1819
     15  C         34.2230   26.3850   16.2810 C.2    80  ASN80       0.2622
     16  O         35.2120   26.6390   16.9600 O.2    80  ASN80      -0.2715
     17  CB        33.2160   25.3010   14.2110 C.3    80  ASN80       0.1195
     18  CG        33.5800   25.1460   12.7670 C.2    80  ASN80       0.2630
     19  OD1       32.7420   25.3080   11.9050 O.2    80  ASN80      -0.2716
     20  ND2       34.7950   24.8090   12.3530 N.am   80  ASN80      -0.0877
     21  N         33.0150   26.7730   16.6860 N.am   81  THR81      -0.1937
     22  CA        32.7720   27.4260   17.9700 C.3    81  THR81       0.2028
     23  C         33.0510   26.4200   19.0550 C.2    81  THR81       0.2642
     24  O         32.5220   25.3070   19.0370 O.2    81  THR81      -0.2714
     25  CB        31.3130   27.8880   18.0000 C.3    81  THR81       0.1808
     26  OG1       31.1740   28.8440   16.9500 O.3    81  THR81      -0.2208
     27  CG2       30.9060   28.5180   19.3390 C.3    81  THR81       0.0379
     28  N         33.9460   26.7460   19.9690 N.am   82  LEU82      -0.1963
     29  CA        34.3500   25.8970   21.0970 C.3    82  LEU82       0.1728
     30  C         33.4440   26.0470   22.3420 C.2    82  LEU82       0.2616
     31  O         33.1960   25.0980   23.1040 O.2    82  LEU82      -0.2715
     32  CB        35.8120   26.2920   21.3830 C.3    82  LEU82       0.0311
     33  CG        36.9800   25.4800   20.8020 C.3    82  LEU82       0.0022
     34  CD1       36.6650   24.8010   19.4720 C.3    82  LEU82       0.0001
     35  CD2       38.1480   26.4590   20.7550 C.3    82  LEU82       0.0001
     36  N         32.9360   27.2690   22.5510 N.am   83  ALA83      -0.1963
     37  CA        32.1120   27.6070   23.7190 C.3    83  ALA83       0.1728
     38  C         31.5300   28.9910   23.5200 C.2    83  ALA83       0.2616
     39  O         31.7970   29.6130   22.4720 O.2    83  ALA83      -0.2715
     40  CB        33.0170   27.6370   24.9530 C.3    83  ALA83       0.0334
     41  N         30.6850   29.4660   24.4170 N.am   84  HIS84      -0.1973
     42  CA        30.1810   30.8420   24.3230 C.3    84  HIS84       0.1656
     43  C         29.7100   31.2540   25.7080 C.2    84  HIS84       0.2291
     44  O         29.3340   30.4070   26.5330 O.2    84  HIS84      -0.2864
     45  CB        29.0160   31.0350   23.2760 C.3    84  HIS84       0.0771
     46  CG        27.7890   30.1000   23.3310 C.ar   84  HIS84       0.0820
     47  ND1       27.2850   29.4630   22.2710 N.ar   84  HIS84      -0.2267
     48  CD2       27.0360   29.7700   24.4270 C.ar   84  HIS84       0.1154
     49  CE1       26.2680   28.7610   22.6810 C.ar   84  HIS84       0.1986
     50  NE2       26.1280   28.9450   23.9580 N.ar   84  HIS84      -0.2212
     51  N         41.3650   20.3640   23.5200 N.3   112  ILE112     -0.1245
     52  CA        41.2240   21.7970   23.7600 C.3   112  ILE112      0.1561
     53  C         41.3970   21.9840   25.2580 C.2   112  ILE112      0.2260
     54  O         40.7550   21.3350   26.0940 O.2   112  ILE112     -0.2867
     55  CB        39.8130   22.2910   23.2840 C.3   112  ILE112      0.0252
     56  CG1       39.5160   21.8500   21.8240 C.3   112  ILE112      0.0019
     57  CG2       39.7690   23.8350   23.4400 C.3   112  ILE112      0.0019
     58  CD1       40.4030   22.4740   20.7300 C.3   112  ILE112      0.0001
     59  N         42.3790   27.3740   29.5160 N.3   116  TYR116     -0.1227
     60  CA        42.4810   28.4860   28.5820 C.3   116  TYR116      0.1736
     61  C         41.0640   28.8870   28.1400 C.2   116  TYR116      0.2595
     62  O         40.6820   30.0780   28.2330 O.2   116  TYR116     -0.2718
     63  CB        43.3550   28.0680   27.3460 C.3   116  TYR116      0.0548
     64  CG        43.5540   29.2630   26.4910 C.ar  116  TYR116     -0.0200
     65  CD1       42.5700   29.6130   25.5520 C.ar  116  TYR116     -0.0009
     66  CD2       44.6380   30.1280   26.7100 C.ar  116  TYR116     -0.0009
     67  CE1       42.6520   30.8110   24.8400 C.ar  116  TYR116      0.0417
     68  CE2       44.7340   31.3300   26.0030 C.ar  116  TYR116      0.0417
     69  CZ        43.7330   31.6620   25.0710 C.ar  116  TYR116      0.1957
     70  OH        43.8390   32.8390   24.3460 O.3   116  TYR116     -0.2866
     71  N         40.2640   27.9070   27.6710 N.am  117  ALA117     -0.1980
     72  CA        38.8820   28.2060   27.2090 C.3   117  ALA117      0.1597
     73  C         38.0360   28.8560   28.3050 C.2   117  ALA117      0.2287
     74  O         37.3810   29.8750   28.0930 O.2   117  ALA117     -0.2864
     75  CB        38.1560   26.9280   26.7480 C.3   117  ALA117      0.0319
     76  N         38.9060   32.5630   28.9810 N.3   120  HIS120     -0.1226
     77  CA        38.3230   33.3850   27.9080 C.3   120  HIS120      0.1752
     78  C         36.8030   33.5640   28.1350 C.2   120  HIS120      0.2595
     79  O         36.2800   34.6840   28.0980 O.2   120  HIS120     -0.2718
     80  CB        38.5790   32.6850   26.5350 C.3   120  HIS120      0.0759
     81  CG        38.1040   33.5600   25.3780 C.ar  120  HIS120      0.0818
     82  ND1       38.8700   34.3020   24.6030 N.ar  120  HIS120     -0.2268
     83  CD2       36.7930   33.6930   24.9340 C.ar  120  HIS120      0.1154
     84  CE1       38.0920   34.8770   23.7020 C.ar  120  HIS120      0.1986
     85  NE2       36.8560   34.5080   23.9110 N.ar  120  HIS120     -0.2212
     86  N         36.0670   32.4650   28.3240 N.am  121  GLU121     -0.1979
     87  CA        34.6330   32.5750   28.5190 C.3   121  GLU121      0.1602
     88  C         34.2630   33.3330   29.7820 C.2   121  GLU121      0.2287
     89  O         33.3350   34.1500   29.7860 O.2   121  GLU121     -0.2864
     90  CB        34.0020   31.1700   28.5340 C.3   121  GLU121      0.0415
     91  CG        34.0580   30.4280   27.1800 C.3   121  GLU121      0.1163
     92  CD        33.7430   31.2530   25.9200 C.2   121  GLU121      0.3649
     93  OE1       32.8090   32.0750   25.8410 O.co2 121  GLU121     -0.2457
     94  OE2       34.4500   31.0390   24.9400 O.co2 121  GLU121     -0.2457
     95  N         34.3220   36.9660   29.2940 N.3   124  HIS124     -0.1241
     96  CA        33.0390   37.4370   28.7390 C.3   124  HIS124      0.1621
     97  C         32.0300   37.5550   29.8870 C.2   124  HIS124      0.2264
     98  O         31.3530   38.5770   30.0010 O.2   124  HIS124     -0.2867
     99  CB        32.4770   36.4490   27.6790 C.3   124  HIS124      0.0745
    100  CG        33.1590   36.6400   26.3420 C.ar  124  HIS124      0.0817
    101  ND1       33.4210   37.7980   25.7560 N.ar  124  HIS124     -0.2268
    102  CD2       33.5660   35.6300   25.4910 C.ar  124  HIS124      0.1154
    103  CE1       33.9660   37.5440   24.5930 C.ar  124  HIS124      0.1986
    104  NE2       34.0520   36.2510   24.4370 N.ar  124  HIS124     -0.2212
    105  N         36.0520   41.2480   22.8150 N.3   130  HIS130     -0.1241
    106  CA        37.2540   40.7180   22.1720 C.3   130  HIS130      0.1621
    107  C         38.3520   41.7220   21.9950 C.2   130  HIS130      0.2264
    108  O         38.1280   42.9330   21.8360 O.2   130  HIS130     -0.2867
    109  CB        36.9200   40.1460   20.7940 C.3   130  HIS130      0.0745
    110  CG        36.2170   38.8050   20.9700 C.ar  130  HIS130      0.0817
    111  ND1       35.3210   38.2850   20.1450 N.ar  130  HIS130     -0.2268
    112  CD2       36.4920   37.8730   21.9550 C.ar  130  HIS130      0.1154
    113  CE1       35.0420   37.0800   20.5730 C.ar  130  HIS130      0.1986
    114  NE2       35.7460   36.8470   21.6550 N.ar  130  HIS130     -0.2212
    115  N         41.5260   37.3480   22.7750 N.3   139  TYR139     -0.1228
    116  CA        41.5480   37.3600   21.3010 C.3   139  TYR139      0.1721
    117  C         40.4600   36.3420   20.8490 C.2   139  TYR139      0.2437
    118  O         40.1930   35.3710   21.5670 O.2   139  TYR139     -0.2733
    119  CB        42.9610   36.9370   20.7860 C.3   139  TYR139      0.0547
    120  CG        43.0800   37.2560   19.3540 C.ar  139  TYR139     -0.0200
    121  CD1       43.1550   38.5960   18.9410 C.ar  139  TYR139     -0.0009
    122  CD2       43.1280   36.2200   18.4120 C.ar  139  TYR139     -0.0009
    123  CE1       43.2760   38.9170   17.5910 C.ar  139  TYR139      0.0417
    124  CE2       43.2500   36.5340   17.0540 C.ar  139  TYR139      0.0417
    125  CZ        43.3210   37.8800   16.6500 C.ar  139  TYR139      0.1957
    126  OH        43.3900   38.1990   15.2950 O.3   139  TYR139     -0.2866
    127  N         39.7700   36.5410   19.7180 N.am  140  PRO140     -0.2718
    128  CA        38.6760   35.6530   19.3130 C.3   140  PRO140      0.1535
    129  C         38.9860   34.2060   18.9670 C.2   140  PRO140      0.2599
    130  O         38.0910   33.3720   19.0950 O.2   140  PRO140     -0.2715
    131  CB        37.9890   36.3920   18.1480 C.3   140  PRO140      0.0310
    132  CG        39.0710   37.3190   17.6650 C.3   140  PRO140      0.0237
    133  CD        39.6810   37.7950   18.9530 C.3   140  PRO140      0.0939
    134  N         40.1650   33.8600   18.4700 N.am  141  THR141     -0.1937
    135  CA        40.5020   32.4790   18.1170 C.3   141  THR141      0.2028
    136  C         41.4210   31.8470   19.1380 C.2   141  THR141      0.2642
    137  O         42.1720   32.5150   19.8690 O.2   141  THR141     -0.2714
    138  CB        41.1630   32.5250   16.7450 C.3   141  THR141      0.1808
    139  OG1       42.2580   33.4480   16.8450 O.3   141  THR141     -0.2208
    140  CG2       40.1900   32.9820   15.6330 C.3   141  THR141      0.0379
    141  N         41.3820   30.5340   19.1760 N.am  142  TYR142     -0.1973
    142  CA        42.1810   29.6750   20.0620 C.3   142  TYR142      0.1639
    143  C         43.5070   29.3000   19.4110 C.2   142  TYR142      0.2290
    144  O         43.5650   29.0890   18.2040 O.2   142  TYR142     -0.2864
    145  CB        41.3670   28.3900   20.3200 C.3   142  TYR142      0.0560
    146  CG        42.0050   27.4090   21.1920 C.ar  142  TYR142     -0.0198
    147  CD1       41.8940   27.5570   22.5780 C.ar  142  TYR142     -0.0009
    148  CD2       42.6760   26.3150   20.6270 C.ar  142  TYR142     -0.0009
    149  CE1       42.4600   26.5950   23.4230 C.ar  142  TYR142      0.0417
    150  CE2       43.2450   25.3500   21.4680 C.ar  142  TYR142      0.0417
    151  CZ        43.1320   25.4990   22.8600 C.ar  142  TYR142      0.1957
    152  OH        43.7070   24.5670   23.7010 O.3   142  TYR142     -0.2866
@<TRIPOS>BOND
     1    19    18    2
     2    20    18   am
     3    18    17    1
     4    17    14    1
     5     4     3    2
     6    14    13    1
     7    14    15    1
     8    13    11   am
     9     5     6    1
    10     5     2    1
    11   126   125    1
    12     8     6   ar
    13   140   138    1
    14     6     7   ar
    15     3     2    1
    16    11    10    1
    17    11    12    2
    18     2     1    1
    19    10     9    1
    20    15    21   am
    21    15    16    2
    22   125   124   ar
    23   125   123   ar
    24    21    22    1
    25   138   139    1
    26   138   135    1
    27    26    25    1
    28   124   122   ar
    29   123   121   ar
    30   132   131    1
    31   132   133    1
    32    22    25    1
    33    22    23    1
    34    25    27    1
    35   135   134    1
    36   135   136    1
    37   131   128    1
    38   144   143    2
    39   122   120   ar
    40   134   129   am
    41   121   120   ar
    42   133   127    1
    43   129   130    2
    44   129   128    1
    45    24    23    2
    46    23    28   am
    47   136   141   am
    48   136   137    2
    49   141   142    1
    50   128   127    1
    51   120   119    1
    52   143   142    1
    53    34    33    1
    54   127   117   am
    55    28    29    1
    56   142   145    1
    57   111   113   ar
    58   111   110   ar
    59   145   146    1
    60   113   114   ar
    61   148   146   ar
    62   148   150   ar
    63    58    56    1
    64    35    33    1
    65   119   116    1
    66   109   110    1
    67   109   106    1
    68    33    32    1
    69   117   116    1
    70   117   118    2
    71   110   112   ar
    72    29    32    1
    73    29    30    1
    74   146   147   ar
    75   116   115    1
    76   150   151   ar
    77   114   112   ar
    78    56    55    1
    79   108   107    2
    80   107   106    1
    81   106   105    1
    82    47    49   ar
    83    47    46   ar
    84    30    36   am
    85    30    31    2
    86    39    38    2
    87    36    37    1
    88   147   149   ar
    89    49    50   ar
    90   151   149   ar
    91   151   152    1
    92    45    46    1
    93    45    42    1
    94    55    57    1
    95    55    52    1
    96    46    48   ar
    97    38    37    1
    98    38    41   am
    99    51    52    1
   100    84    85   ar
   101    84    82   ar
   102    37    40    1
   103    52    53    1
   104    85    83   ar
   105    50    48   ar
   106    42    41    1
   107    42    43    1
   108    70    69    1
   109   104   103   ar
   110   104   102   ar
   111   103   101   ar
   112    82    81   ar
   113    67    69   ar
   114    67    65   ar
   115    83    81   ar
   116    94    92   ar
   117    69    68   ar
   118    53    54    2
   119    81    80    1
   120   102   100   ar
   121    65    64   ar
   122    43    44    2
   123   101   100   ar
   124    93    92   ar
   125    92    91    1
   126    68    66   ar
   127   100    99    1
   128    64    66   ar
   129    64    63    1
   130    80    77    1
   131    75    72    1
   132    91    90    1
   133    72    71    1
   134    72    73    1
   135    63    60    1
   136    71    61   am
   137    99    96    1
   138    77    78    1
   139    77    76    1
   140    74    73    2
   141    79    78    2
   142    78    86   am
   143    61    62    2
   144    61    60    1
   145    86    87    1
   146    87    90    1
   147    87    88    1
   148    60    59    1
   149    96    95    1
   150    96    97    1
   151    88    89    2
   152    97    98    2
