@<TRIPOS>MOLECULE
tmp/1mmrA00.pdb
 157 157 0 0 0
SMALL
GASTEIGER

@<TRIPOS>ATOM
      1  N         59.4120  -42.3520   46.3300 N.3    76  ASP76      -0.1239
      2  CA        59.7750  -41.9240   44.9860 C.3    76  ASP76       0.1674
      3  C         60.4500  -40.5990   44.8450 C.2    76  ASP76       0.2266
      4  O         60.3540  -40.0200   43.7740 O.2    76  ASP76      -0.2867
      5  CB        58.4520  -41.9620   44.1840 C.3    76  ASP76       0.1410
      6  CG        57.4070  -41.0640   44.8360 C.2    76  ASP76       0.3668
      7  OD1       57.7320  -40.3290   45.7560 O.co2  76  ASP76      -0.2456
      8  OD2       56.2390  -41.0850   44.4780 O.co2  76  ASP76      -0.2456
      9  N         57.9310  -34.8940   45.6260 N.3    79  GLY79      -0.1210
     10  CA        56.6760  -34.9620   44.8640 C.3    79  GLY79       0.1956
     11  C         56.0350  -36.3210   44.7840 C.2    79  GLY79       0.2612
     12  O         56.4670  -37.2730   45.4370 O.2    79  GLY79      -0.2717
     13  N         54.9430  -36.4100   44.0450 N.am   80  ASN80      -0.1960
     14  CA        54.1560  -37.6380   43.8520 C.3    80  ASN80       0.1819
     15  C         53.7370  -38.2120   45.1890 C.2    80  ASN80       0.2622
     16  O         53.0840  -37.4700   45.9080 O.2    80  ASN80      -0.2715
     17  CB        54.9960  -38.6040   43.0310 C.3    80  ASN80       0.1195
     18  CG        55.0760  -38.1420   41.5990 C.2    80  ASN80       0.2630
     19  OD1       55.5840  -38.8600   40.7530 O.2    80  ASN80      -0.2716
     20  ND2       54.6140  -36.9640   41.1930 N.am   80  ASN80      -0.0877
     21  N         54.0230  -39.4520   45.5960 N.am   81  THR81      -0.1937
     22  CA        53.5910  -39.9330   46.9080 C.3    81  THR81       0.2028
     23  C         54.3300  -39.1910   47.9780 C.2    81  THR81       0.2642
     24  O         55.5690  -39.1790   47.9980 O.2    81  THR81      -0.2714
     25  CB        53.8910  -41.4360   47.0590 C.3    81  THR81       0.1808
     26  OG1       53.2810  -42.0940   45.9370 O.3    81  THR81      -0.2208
     27  CG2       53.3550  -42.0240   48.3930 C.3    81  THR81       0.0379
     28  N         53.6230  -38.5110   48.8450 N.am   82  LEU82      -0.1963
     29  CA        54.2190  -37.7580   49.9720 C.3    82  LEU82       0.1728
     30  C         54.4920  -38.6190   51.1990 C.2    82  LEU82       0.2616
     31  O         55.4040  -38.3550   51.9730 O.2    82  LEU82      -0.2715
     32  CB        53.2610  -36.6330   50.3930 C.3    82  LEU82       0.0311
     33  CG        53.2010  -35.2930   49.6510 C.3    82  LEU82       0.0022
     34  CD1       53.8650  -35.3450   48.2880 C.3    82  LEU82       0.0001
     35  CD2       51.7210  -34.8690   49.7000 C.3    82  LEU82       0.0001
     36  N         53.6530  -39.6220   51.4280 N.am   83  ALA83      -0.1963
     37  CA        53.7250  -40.4900   52.5970 C.3    83  ALA83       0.1728
     38  C         52.8070  -41.6860   52.3630 C.2    83  ALA83       0.2616
     39  O         52.2500  -41.7600   51.2630 O.2    83  ALA83      -0.2715
     40  CB        53.2280  -39.6670   53.7910 C.3    83  ALA83       0.0334
     41  N         52.7360  -42.6790   53.2660 N.am   84  HIS84      -0.1959
     42  CA        51.7980  -43.8250   53.1280 C.3    84  HIS84       0.1787
     43  C         51.6200  -44.4690   54.5190 C.2    84  HIS84       0.2620
     44  O         52.5350  -44.4760   55.3560 O.2    84  HIS84      -0.2715
     45  CB        52.2600  -44.9370   52.0900 C.3    84  HIS84       0.0785
     46  CG        53.6550  -45.5140   52.2530 C.ar   84  HIS84       0.0821
     47  ND1       54.4880  -45.6640   51.2320 N.ar   84  HIS84      -0.2267
     48  CD2       54.2940  -45.9100   53.4050 C.ar   84  HIS84       0.1154
     49  CE1       55.6080  -46.1250   51.7050 C.ar   84  HIS84       0.1986
     50  NE2       55.4800  -46.2640   52.9960 N.ar   84  HIS84      -0.2212
     51  N         50.4360  -45.0040   54.7930 N.am   85  ALA85      -0.1977
     52  CA        50.1510  -45.6190   56.0990 C.3    85  ALA85       0.1597
     53  C         49.4420  -46.9420   55.8570 C.2    85  ALA85       0.2287
     54  O         48.9170  -47.1520   54.7640 O.2    85  ALA85      -0.2864
     55  CB        49.2250  -44.7210   56.9630 C.3    85  ALA85       0.0319
     56  N         55.3160  -29.0880   52.2430 N.3   112  ILE112     -0.1245
     57  CA        54.1410  -29.9100   52.5460 C.3   112  ILE112      0.1561
     58  C         53.8410  -29.7530   54.0160 C.2   112  ILE112      0.2260
     59  O         54.7330  -29.9410   54.8540 O.2   112  ILE112     -0.2867
     60  CB        54.4280  -31.3940   52.1910 C.3   112  ILE112      0.0252
     61  CG1       54.8850  -31.5170   50.7060 C.3   112  ILE112      0.0019
     62  CG2       53.1410  -32.2200   52.3850 C.3   112  ILE112      0.0019
     63  CD1       53.8160  -31.1900   49.6380 C.3   112  ILE112      0.0001
     64  N         48.6760  -31.5070   58.3260 N.3   116  TYR116     -0.1227
     65  CA        47.6670  -31.9950   57.3890 C.3   116  TYR116      0.1736
     66  C         48.0270  -33.4170   56.9420 C.2   116  TYR116      0.2595
     67  O         47.1990  -34.3310   57.0490 O.2   116  TYR116     -0.2718
     68  CB        47.5950  -31.0270   56.1820 C.3   116  TYR116      0.0548
     69  CG        46.4500  -31.4350   55.3290 C.ar  116  TYR116     -0.0200
     70  CD1       46.6150  -32.4330   54.3460 C.ar  116  TYR116     -0.0009
     71  CD2       45.1840  -30.8730   55.5360 C.ar  116  TYR116     -0.0009
     72  CE1       45.5290  -32.8610   53.5780 C.ar  116  TYR116      0.0417
     73  CE2       44.0840  -31.2930   54.7720 C.ar  116  TYR116      0.0417
     74  CZ        44.2650  -32.2840   53.7900 C.ar  116  TYR116      0.1957
     75  OH        43.2120  -32.6050   52.9490 O.3   116  TYR116     -0.2866
     76  N         49.2580  -33.6430   56.4480 N.am  117  ALA117     -0.1980
     77  CA        49.7170  -34.9820   56.0040 C.3   117  ALA117      0.1597
     78  C         49.5980  -35.9960   57.1400 C.2   117  ALA117      0.2287
     79  O         49.1540  -37.1270   56.9570 O.2   117  ALA117     -0.2864
     80  CB        51.1990  -34.9360   55.5460 C.3   117  ALA117      0.0319
     81  N         45.8920  -37.0690   57.6610 N.3   120  HIS120     -0.1226
     82  CA        45.4790  -38.0210   56.6070 C.3   120  HIS120      0.1752
     83  C         46.0910  -39.4300   56.8490 C.2   120  HIS120      0.2595
     84  O         45.4020  -40.4550   56.8240 O.2   120  HIS120     -0.2718
     85  CB        45.9290  -37.4130   55.2600 C.3   120  HIS120      0.0759
     86  CG        45.5190  -38.2700   54.0620 C.ar  120  HIS120      0.0818
     87  ND1       44.4890  -38.0200   53.2900 N.ar  120  HIS120     -0.2268
     88  CD2       46.1370  -39.4120   53.6160 C.ar  120  HIS120      0.1154
     89  CE1       44.4370  -38.9600   52.3920 C.ar  120  HIS120      0.1986
     90  NE2       45.4210  -39.7850   52.5950 N.ar  120  HIS120     -0.2212
     91  N         47.3990  -39.4970   57.0350 N.am  121  GLU121     -0.1979
     92  CA        48.0760  -40.7500   57.2830 C.3   121  GLU121      0.1602
     93  C         47.5750  -41.3980   58.5490 C.2   121  GLU121      0.2287
     94  O         47.3270  -42.6030   58.5720 O.2   121  GLU121     -0.2864
     95  CB        49.5920  -40.5260   57.3960 C.3   121  GLU121      0.0415
     96  CG        50.3390  -40.0930   56.1260 C.3   121  GLU121      0.1163
     97  CD        49.7210  -40.6070   54.8120 C.2   121  GLU121      0.3649
     98  OE1       49.6290  -41.8090   54.5700 O.co2 121  GLU121     -0.2457
     99  OE2       49.3170  -39.7700   54.0120 O.co2 121  GLU121     -0.2457
    100  N         44.3850  -43.1960   58.0380 N.3   124  HIS124     -0.1241
    101  CA        44.6030  -44.5490   57.5090 C.3   124  HIS124      0.1621
    102  C         45.0350  -45.4700   58.6550 C.2   124  HIS124      0.2264
    103  O         44.5250  -46.5830   58.7900 O.2   124  HIS124     -0.2867
    104  CB        45.7270  -44.5720   56.4110 C.3   124  HIS124      0.0745
    105  CG        45.2600  -44.0440   55.0700 C.ar  124  HIS124      0.0817
    106  ND1       44.1730  -44.4300   54.4190 N.ar  124  HIS124     -0.2268
    107  CD2       45.9440  -43.1470   54.2710 C.ar  124  HIS124      0.1154
    108  CE1       44.1560  -43.8250   53.2580 C.ar  124  HIS124      0.1986
    109  NE2       45.2070  -43.0610   53.1740 N.ar  124  HIS124     -0.2212
    110  N         39.9620  -43.8340   51.5480 N.3   130  HIS130     -0.1241
    111  CA        39.8410  -42.5680   50.8320 C.3   130  HIS130      0.1621
    112  C         38.4150  -42.1260   50.5970 C.2   130  HIS130      0.2264
    113  O         37.4660  -42.9260   50.4310 O.2   130  HIS130     -0.2867
    114  CB        40.5370  -42.6680   49.4760 C.3   130  HIS130      0.0745
    115  CG        42.0510  -42.5700   49.6720 C.ar  130  HIS130      0.0817
    116  ND1       42.9660  -43.0860   48.8720 N.ar  130  HIS130     -0.2268
    117  CD2       42.6990  -41.7970   50.6190 C.ar  130  HIS130      0.1154
    118  CE1       44.1400  -42.6570   49.2890 C.ar  130  HIS130      0.1986
    119  NE2       43.9670  -41.8890   50.3310 N.ar  130  HIS130     -0.2212
    120  N         40.5960  -37.1650   51.3680 N.3   139  TYR139     -0.1228
    121  CA        40.5830  -37.1830   49.8890 C.3   139  TYR139      0.1721
    122  C         41.9980  -37.6340   49.4660 C.2   139  TYR139      0.2437
    123  O         42.9720  -37.3160   50.1690 O.2   139  TYR139     -0.2733
    124  CB        40.2890  -35.7690   49.3580 C.3   139  TYR139      0.0547
    125  CG        39.8990  -35.8130   47.9370 C.ar  139  TYR139     -0.0200
    126  CD1       38.7000  -36.4440   47.5340 C.ar  139  TYR139     -0.0009
    127  CD2       40.7570  -35.2300   46.9990 C.ar  139  TYR139     -0.0009
    128  CE1       38.3610  -36.4930   46.1710 C.ar  139  TYR139      0.0417
    129  CE2       40.4300  -35.2750   45.6420 C.ar  139  TYR139      0.0417
    130  CZ        39.2380  -35.9070   45.2300 C.ar  139  TYR139      0.1957
    131  OH        38.9700  -35.9760   43.8710 O.3   139  TYR139     -0.2866
    132  N         42.2040  -38.3860   48.3710 N.am  140  PRO140     -0.2718
    133  CA        43.5550  -38.8740   48.0020 C.3   140  PRO140      0.1535
    134  C         44.6880  -37.8780   47.6680 C.2   140  PRO140      0.2599
    135  O         45.8860  -38.1860   47.8210 O.2   140  PRO140     -0.2715
    136  CB        43.2820  -39.8350   46.8630 C.3   140  PRO140      0.0310
    137  CG        41.9080  -39.4280   46.3570 C.3   140  PRO140      0.0237
    138  CD        41.1850  -39.1360   47.6350 C.3   140  PRO140      0.0939
    139  N         44.3770  -36.7070   47.1440 N.am  141  THR141     -0.1937
    140  CA        45.4120  -35.7240   46.8020 C.3   141  THR141      0.2028
    141  C         45.4900  -34.5670   47.7850 C.2   141  THR141      0.2642
    142  O         44.5300  -34.2290   48.4950 O.2   141  THR141     -0.2714
    143  CB        45.0820  -35.2580   45.3960 C.3   141  THR141      0.1808
    144  OG1       43.7080  -34.8270   45.3820 O.3   141  THR141     -0.2208
    145  CG2       45.2390  -36.4040   44.3730 C.3   141  THR141      0.0379
    146  N         46.6500  -33.9520   47.8370 N.am  142  TYR142     -0.1973
    147  CA        46.9550  -32.8040   48.7000 C.3   142  TYR142      0.1639
    148  C         46.6240  -31.4710   48.0420 C.2   142  TYR142      0.2290
    149  O         46.7730  -31.3320   46.8330 O.2   142  TYR142     -0.2864
    150  CB        48.4500  -32.8700   48.9880 C.3   142  TYR142      0.0560
    151  CG        48.9480  -31.8170   49.8620 C.ar  142  TYR142     -0.0198
    152  CD1       48.8810  -31.9970   51.2510 C.ar  142  TYR142     -0.0009
    153  CD2       49.4850  -30.6530   49.2920 C.ar  142  TYR142     -0.0009
    154  CE1       49.3640  -30.9900   52.0940 C.ar  142  TYR142      0.0417
    155  CE2       49.9610  -29.6540   50.1480 C.ar  142  TYR142      0.0417
    156  CZ        49.9010  -29.8220   51.5390 C.ar  142  TYR142      0.1957
    157  OH        50.3770  -28.8270   52.3780 O.3   142  TYR142     -0.2866
@<TRIPOS>BOND
     1    19    18    2
     2    20    18   am
     3    18    17    1
     4    17    14    1
     5     4     3    2
     6    14    13    1
     7    14    15    1
     8   131   130    1
     9    13    11   am
    10     5     6    1
    11     5     2    1
    12   145   143    1
    13     8     6   ar
    14    11    10    1
    15    11    12    2
    16     6     7   ar
    17     3     2    1
    18    10     9    1
    19     2     1    1
    20    15    21   am
    21    15    16    2
    22   130   129   ar
    23   130   128   ar
    24   144   143    1
    25   143   140    1
    26    21    22    1
    27   129   127   ar
    28    26    25    1
    29   128   126   ar
    30   137   136    1
    31   137   138    1
    32   140   139    1
    33   140   141    1
    34   149   148    2
    35   136   133    1
    36    22    25    1
    37    22    23    1
    38   127   125   ar
    39    25    27    1
    40   139   134   am
    41   126   125   ar
    42   138   132    1
    43   134   135    2
    44   134   133    1
    45   141   146   am
    46   141   142    2
    47   146   147    1
    48   125   124    1
    49    23    24    2
    50    23    28   am
    51   133   132    1
    52   148   147    1
    53    34    33    1
    54   132   122   am
    55   147   150    1
    56    28    29    1
    57   116   118   ar
    58   116   115   ar
    59   150   151    1
    60   118   119   ar
    61   153   151   ar
    62   153   155   ar
    63   124   121    1
    64   122   121    1
    65   122   123    2
    66   114   115    1
    67   114   111    1
    68    63    61    1
    69    33    35    1
    70    33    32    1
    71   115   117   ar
    72   151   152   ar
    73   121   120    1
    74    29    32    1
    75    29    30    1
    76   155   156   ar
    77   119   117   ar
    78   113   112    2
    79   112   111    1
    80    61    60    1
    81   111   110    1
    82    30    36   am
    83    30    31    2
    84    47    49   ar
    85    47    46   ar
    86   152   154   ar
    87    39    38    2
    88    36    37    1
    89   156   154   ar
    90   156   157    1
    91    49    50   ar
    92    45    46    1
    93    45    42    1
    94    60    62    1
    95    60    57    1
    96    56    57    1
    97    46    48   ar
    98    38    37    1
    99    38    41   am
   100    89    90   ar
   101    89    87   ar
   102    57    58    1
   103    90    88   ar
   104    37    40    1
   105    75    74    1
   106    50    48   ar
   107    42    41    1
   108    42    43    1
   109   109   108   ar
   110   109   107   ar
   111   108   106   ar
   112    87    86   ar
   113    72    74   ar
   114    72    70   ar
   115    88    86   ar
   116    74    73   ar
   117    99    97   ar
   118    58    59    2
   119    86    85    1
   120   107   105   ar
   121    70    69   ar
   122   106   105   ar
   123    43    51   am
   124    43    44    2
   125    98    97   ar
   126    54    53    2
   127    73    71   ar
   128    51    52    1
   129    97    96    1
   130   105   104    1
   131    85    82    1
   132    69    71   ar
   133    69    68    1
   134    80    77    1
   135    53    52    1
   136    77    76    1
   137    77    78    1
   138    52    55    1
   139    96    95    1
   140    68    65    1
   141   104   101    1
   142    76    66   am
   143    82    83    1
   144    82    81    1
   145    84    83    2
   146    83    91   am
   147    66    67    2
   148    66    65    1
   149    79    78    2
   150    91    92    1
   151    92    95    1
   152    92    93    1
   153    65    64    1
   154   101   100    1
   155   101   102    1
   156    93    94    2
   157   102   103    2
