@<TRIPOS>MOLECULE
tmp/1mmtA01.pdb
 142 140 0 0 0
SMALL
GASTEIGER

@<TRIPOS>ATOM
      1  N         -8.6610   20.4690   -1.1390 N.3    22  TYR22      -0.1241
      2  CA        -8.5200   21.5250   -2.1290 C.3    22  TYR22       0.1605
      3  C         -9.1080   21.1120   -3.4720 C.2    22  TYR22       0.2264
      4  O         -8.8420   21.7330   -4.5010 O.2    22  TYR22      -0.2867
      5  CB        -7.0500   21.9240   -2.2720 C.3    22  TYR22       0.0534
      6  CG        -6.5510   22.7220   -1.0830 C.ar   22  TYR22      -0.0201
      7  CD1       -5.4440   22.2940   -0.3480 C.ar   22  TYR22      -0.0009
      8  CD2       -7.2190   23.8820   -0.6670 C.ar   22  TYR22      -0.0009
      9  CE1       -5.0120   22.9900    0.7770 C.ar   22  TYR22       0.0417
     10  CE2       -6.7980   24.5970    0.4610 C.ar   22  TYR22       0.0417
     11  CZ        -5.6940   24.1420    1.1780 C.ar   22  TYR22       0.1957
     12  OH        -5.2650   24.8220    2.2920 O.3    22  TYR22      -0.2866
     13  N         -7.2220   18.2850    5.8810 N.3   132  LEU132     -0.1245
     14  CA        -7.4520   19.7310    5.8710 C.3   132  LEU132      0.1561
     15  C         -8.6930   20.1790    6.6490 C.2   132  LEU132      0.2260
     16  O         -9.7890   19.6580    6.4370 O.2   132  LEU132     -0.2867
     17  CB        -7.5810   20.2100    4.4210 C.3   132  LEU132      0.0270
     18  CG        -7.7270   21.7100    4.1600 C.3   132  LEU132      0.0019
     19  CD1       -6.4070   22.3860    4.4610 C.3   132  LEU132      0.0001
     20  CD2       -8.1340   21.9550    2.7090 C.3   132  LEU132      0.0001
     21  N          2.4750   12.5500    1.4700 N.3   154  ARG154     -0.1245
     22  CA         2.1470   12.7070    0.0570 C.3   154  ARG154      0.1563
     23  C          2.4740   11.4710   -0.7760 C.2   154  ARG154      0.2260
     24  O          3.3300   10.6620   -0.4060 O.2   154  ARG154     -0.2867
     25  CB         2.9060   13.9050   -0.5120 C.3   154  ARG154      0.0307
     26  CG         4.4320   13.7440   -0.4990 C.3   154  ARG154      0.0489
     27  CD         5.0990   15.0790   -0.8030 C.3   154  ARG154      0.2205
     28  NE         4.7520   16.0840    0.2090 N.pl3 154  ARG154     -0.0865
     29  CZ         4.9130   17.3960    0.0580 C.cat 154  ARG154      0.5346
     30  NH1        5.4200   17.8900   -1.0710 N.pl3 154  ARG154      0.1354
     31  NH2        4.5500   18.2130    1.0340 N.pl3 154  ARG154      0.1354
     32  N          5.7930   18.3500   -4.8530 N.3   161  TYR161     -0.1227
     33  CA         4.6380   19.1970   -4.5540 C.3   161  TYR161      0.1736
     34  C          3.3540   18.3980   -4.3850 C.2   161  TYR161      0.2596
     35  O          3.1600   17.3760   -5.0410 O.2   161  TYR161     -0.2718
     36  CB         4.4260   20.2180   -5.6880 C.3   161  TYR161      0.0548
     37  CG         3.1410   21.0290   -5.5650 C.ar  161  TYR161     -0.0200
     38  CD1        3.1230   22.2640   -4.9040 C.ar  161  TYR161     -0.0009
     39  CD2        1.9290   20.5350   -6.0740 C.ar  161  TYR161     -0.0009
     40  CE1        1.9270   22.9840   -4.7510 C.ar  161  TYR161      0.0417
     41  CE2        0.7310   21.2420   -5.9240 C.ar  161  TYR161      0.0417
     42  CZ         0.7380   22.4640   -5.2560 C.ar  161  TYR161      0.1957
     43  OH        -0.4450   23.1270   -5.0410 O.3   161  TYR161     -0.2866
     44  N          2.5010   18.8660   -3.4750 N.am  162  THR162     -0.1939
     45  CA         1.1880   18.2780   -3.2280 C.3   162  THR162      0.2013
     46  C          0.2850   19.4100   -2.7680 C.2   162  THR162      0.2484
     47  O          0.7260   20.3160   -2.0640 O.2   162  THR162     -0.2729
     48  CB         1.1830   17.2050   -2.1150 C.3   162  THR162      0.1807
     49  OG1       -0.1410   16.6710   -1.9860 O.3   162  THR162     -0.2208
     50  CG2        1.5990   17.8030   -0.7780 C.3   162  THR162      0.0379
     51  N         -0.9800   19.3990   -3.1940 N.am  163  PRO163     -0.2715
     52  CA        -1.8960   20.4580   -2.7760 C.3   163  PRO163      0.1536
     53  C         -2.2430   20.3330   -1.2920 C.2   163  PRO163      0.2598
     54  O         -2.4130   21.3300   -0.6020 O.2   163  PRO163     -0.2715
     55  CB        -3.1230   20.2170   -3.6480 C.3   163  PRO163      0.0310
     56  CG        -2.5680   19.5560   -4.8680 C.3   163  PRO163      0.0237
     57  CD        -1.5590   18.6010   -4.2860 C.3   163  PRO163      0.0939
     58  N         -2.3330   19.1000   -0.8080 N.am  164  GLU164     -0.1964
     59  CA        -2.7220   18.8280    0.5700 C.3   164  GLU164      0.1718
     60  C         -1.6550   19.0550    1.6450 C.2   164  GLU164      0.2458
     61  O         -0.4540   18.9420    1.3970 O.2   164  GLU164     -0.2730
     62  CB        -3.2490   17.3880    0.6730 C.3   164  GLU164      0.0428
     63  CG        -4.4170   17.0330   -0.2830 C.3   164  GLU164      0.1163
     64  CD        -5.7170   17.8080   -0.0090 C.2   164  GLU164      0.3649
     65  OE1       -6.1560   17.8610    1.1690 O.co2 164  GLU164     -0.2457
     66  OE2       -6.3100   18.3400   -0.9880 O.co2 164  GLU164     -0.2457
     67  N         -2.0930   19.4010    2.8630 N.am  165  PRO165     -0.2727
     68  CA        -1.1230   19.6240    3.9320 C.3   165  PRO165      0.1402
     69  C         -0.7190   18.2950    4.5700 C.2   165  PRO165      0.2269
     70  O         -1.2240   17.9270    5.6350 O.2   165  PRO165     -0.2865
     71  CB        -1.8820   20.5340    4.8960 C.3   165  PRO165      0.0296
     72  CG        -3.2800   20.0210    4.7910 C.3   165  PRO165      0.0237
     73  CD        -3.4540   19.7840    3.2910 C.3   165  PRO165      0.0939
     74  N          4.5310   18.8200    4.9200 N.3   169  HIS169     -0.1241
     75  CA         4.1540   20.2290    5.0560 C.3   169  HIS169      0.1621
     76  C          4.0020   20.6560    6.5170 C.2   169  HIS169      0.2264
     77  O          4.4530   21.7320    6.9080 O.2   169  HIS169     -0.2867
     78  CB         2.8300   20.4930    4.3290 C.3   169  HIS169      0.0745
     79  CG         2.2980   21.8750    4.5360 C.ar  169  HIS169      0.0817
     80  ND1        2.9170   22.9970    4.0300 N.ar  169  HIS169     -0.2268
     81  CD2        1.2300   22.3230    5.2390 C.ar  169  HIS169      0.1154
     82  CE1        2.2580   24.0750    4.4120 C.ar  169  HIS169      0.1986
     83  NE2        1.2290   23.6930    5.1470 N.ar  169  HIS169     -0.2212
     84  N         -2.5690   33.0670    4.0470 N.3   210  TRP210     -0.1241
     85  CA        -2.0590   32.3450    2.8820 C.3   210  TRP210      0.1605
     86  C         -0.8770   33.0600    2.2230 C.2   210  TRP210      0.2264
     87  O          0.1430   32.4320    1.9070 O.2   210  TRP210     -0.2867
     88  CB        -3.1950   32.1270    1.8660 C.3   210  TRP210      0.0550
     89  CG        -2.8660   31.1680    0.7380 C.ar  210  TRP210      0.0003
     90  CD1       -2.3570   31.4850   -0.4900 C.ar  210  TRP210      0.0946
     91  CD2       -3.0380   29.7410    0.7400 C.ar  210  TRP210      0.0152
     92  NE1       -2.2120   30.3500   -1.2520 N.ar  210  TRP210     -0.2442
     93  CE2       -2.6210   29.2660   -0.5220 C.ar  210  TRP210      0.0810
     94  CE3       -3.5120   28.8210    1.6830 C.ar  210  TRP210      0.0012
     95  CZ2       -2.6510   27.9070   -0.8620 C.ar  210  TRP210      0.0191
     96  CZ3       -3.5430   27.4660    1.3410 C.ar  210  TRP210      0.0001
     97  CH2       -3.1160   27.0280    0.0800 C.ar  210  TRP210      0.0015
     98  N          1.7870   31.0870    4.8870 N.3   214  GLU214     -0.1231
     99  CA         1.8580   29.9330    3.9820 C.3   214  GLU214      0.1699
    100  C          2.7660   30.0690    2.7460 C.2   214  GLU214      0.2592
    101  O          3.5440   29.1590    2.4490 O.2   214  GLU214     -0.2718
    102  CB         0.4610   29.5280    3.5010 C.3   214  GLU214      0.0402
    103  CG        -0.4910   29.1080    4.6050 C.3   214  GLU214      0.1161
    104  CD        -0.2570   27.6960    5.1180 C.2   214  GLU214      0.3649
    105  OE1        0.7760   27.0690    4.7890 O.co2 214  GLU214     -0.2457
    106  OE2       -1.1230   27.2080    5.8700 O.co2 214  GLU214     -0.2457
    107  N          2.6630   31.1740    2.0140 N.am  215  PHE215     -0.1976
    108  CA         3.4910   31.3460    0.8200 C.3   215  PHE215      0.1639
    109  C          4.1870   32.7050    0.7500 C.2   215  PHE215      0.2290
    110  O          4.4460   33.2260   -0.3340 O.2   215  PHE215     -0.2864
    111  CB         2.6470   31.1100   -0.4480 C.3   215  PHE215      0.0560
    112  CG         2.1220   29.7070   -0.5710 C.ar  215  PHE215     -0.0200
    113  CD1        0.9300   29.3390    0.0460 C.ar  215  PHE215     -0.0042
    114  CD2        2.8570   28.7330   -1.2450 C.ar  215  PHE215     -0.0042
    115  CE1        0.4790   28.0210    0.0020 C.ar  215  PHE215     -0.0003
    116  CE2        2.4180   27.4140   -1.2940 C.ar  215  PHE215     -0.0003
    117  CZ         1.2250   27.0510   -0.6680 C.ar  215  PHE215     -0.0000
    118  N          4.2790   26.7300    3.0720 N.3   230  GLY230     -0.1225
    119  CA         3.9570   26.0270    1.8400 C.3   230  GLY230      0.1811
    120  C          5.1100   25.9830    0.8620 C.2   230  GLY230      0.2280
    121  O          5.2110   25.0910    0.0190 O.2   230  GLY230     -0.2866
    122  N          7.9800   23.4370    2.3590 N.3   233  SER233     -0.1202
    123  CA         7.7000   22.0030    2.3420 C.3   233  SER233      0.2020
    124  C          7.6570   21.4400    0.9230 C.2   233  SER233      0.2619
    125  O          7.5760   20.2210    0.7280 O.2   233  SER233     -0.2717
    126  CB         6.3740   21.6990    3.0500 C.3   233  SER233      0.2103
    127  OG         5.3130   22.4940    2.5380 O.3   233  SER233     -0.2182
    128  N          7.7180   22.3310   -0.0630 N.am  234  SER234     -0.1951
    129  CA         7.6700   21.9490   -1.4740 C.3   234  SER234      0.1924
    130  C          8.9880   22.2770   -2.1710 C.2   234  SER234      0.2314
    131  O          9.1940   23.4260   -2.5750 O.2   234  SER234     -0.2863
    132  CB         6.5230   22.7040   -2.1680 C.3   234  SER234      0.2116
    133  OG         6.5880   22.5390   -3.5850 O.3   234  SER234     -0.2180
    134  N          8.1160   24.1140   -5.4520 N.3   237  GLU237     -0.1245
    135  CA         7.7510   25.5330   -5.4100 C.3   237  GLU237      0.1567
    136  C          8.8330   26.3970   -4.7440 C.2   237  GLU237      0.2260
    137  O          8.8910   27.5960   -4.9820 O.2   237  GLU237     -0.2867
    138  CB         6.3990   25.7480   -4.7070 C.3   237  GLU237      0.0388
    139  CG         5.7970   27.1260   -5.0340 C.3   237  GLU237      0.1160
    140  CD         4.3520   27.3130   -4.6200 C.2   237  GLU237      0.3649
    141  OE1        3.8570   28.4610   -4.7210 O.co2 237  GLU237     -0.2457
    142  OE2        3.6870   26.3270   -4.2270 O.co2 237  GLU237     -0.2457
@<TRIPOS>BOND
     1    39    41   ar
     2    39    37   ar
     3    41    42   ar
     4    36    37    1
     5    36    33    1
     6    37    38   ar
     7   134   135    1
     8   135   136    1
     9   135   138    1
    10    42    43    1
    11    42    40   ar
    12    35    34    2
    13   139   138    1
    14   139   140    1
    15   137   136    2
    16    38    40   ar
    17    56    57    1
    18    56    55    1
    19    32    33    1
    20   141   140   ar
    21   140   142   ar
    22    33    34    1
    23     4     3    2
    24    34    44   am
    25    57    51    1
    26    55    52    1
    27   133   132    1
    28    44    45    1
    29     3     2    1
    30    45    46    1
    31    45    48    1
    32    51    52    1
    33    51    46   am
    34    52    53    1
    35    46    47    2
    36   131   130    2
    37     5     2    1
    38     5     6    1
    39   130   129    1
    40   132   129    1
    41     2     1    1
    42    48    49    1
    43    48    50    1
    44   129   128    1
    45   116   114   ar
    46   116   117   ar
    47    53    58   am
    48    53    54    2
    49    92    93   ar
    50    92    90   ar
    51   114   112   ar
    52     6     8   ar
    53     6     7   ar
    54    30    29    1
    55    66    64   ar
    56    95    93   ar
    57    95    97   ar
    58    58    59    1
    59    27    26    1
    60    27    28    1
    61    23    24    2
    62    23    22    1
    63   117   115   ar
    64     8    10   ar
    65   112   111    1
    66   112   113   ar
    67    93    91   ar
    68    25    26    1
    69    25    22    1
    70    90    89   ar
    71   111   108    1
    72     7     9   ar
    73   110   109    2
    74    63    64    1
    75    63    62    1
    76   128   124   am
    77    64    65   ar
    78   115   113   ar
    79   121   120    2
    80    22    21    1
    81    29    28    2
    82    29    31    1
    83    97    96   ar
    84    10    11   ar
    85    59    62    1
    86    59    60    1
    87   125   124    2
    88    89    91   ar
    89    89    88    1
    90    91    94   ar
    91   109   108    1
    92     9    11   ar
    93   108   107    1
    94   120   119    1
    95   124   123    1
    96    11    12    1
    97    96    94   ar
    98    61    60    2
    99    60    67   am
   100   119   118    1
   101    88    85    1
   102    87    86    2
   103   107   100   am
   104    86    85    1
   105   123   122    1
   106   123   126    1
   107   101   100    2
   108   127   126    1
   109    20    18    1
   110   100    99    1
   111    67    73    1
   112    67    68    1
   113    85    84    1
   114    73    72    1
   115   102    99    1
   116   102   103    1
   117    68    69    1
   118    68    71    1
   119    99    98    1
   120    80    82   ar
   121    80    79   ar
   122    18    17    1
   123    18    19    1
   124    78    79    1
   125    78    75    1
   126    82    83   ar
   127    17    14    1
   128    79    81   ar
   129    69    70    2
   130   103   104    1
   131   105   104   ar
   132    72    71    1
   133    74    75    1
   134    75    76    1
   135   104   106   ar
   136    83    81   ar
   137    14    13    1
   138    14    15    1
   139    16    15    2
   140    76    77    2
