@<TRIPOS>MOLECULE
tmp/1mmtA00.pdb
 174 172 0 0 0
SMALL
GASTEIGER

@<TRIPOS>ATOM
      1  N         -8.6610   20.4690   -1.1390 N.3    22  TYR22      -0.1241
      2  CA        -8.5200   21.5250   -2.1290 C.3    22  TYR22       0.1605
      3  C         -9.1080   21.1120   -3.4720 C.2    22  TYR22       0.2264
      4  O         -8.8420   21.7330   -4.5010 O.2    22  TYR22      -0.2867
      5  CB        -7.0500   21.9240   -2.2720 C.3    22  TYR22       0.0534
      6  CG        -6.5510   22.7220   -1.0830 C.ar   22  TYR22      -0.0201
      7  CD1       -5.4440   22.2940   -0.3480 C.ar   22  TYR22      -0.0009
      8  CD2       -7.2190   23.8820   -0.6670 C.ar   22  TYR22      -0.0009
      9  CE1       -5.0120   22.9900    0.7770 C.ar   22  TYR22       0.0417
     10  CE2       -6.7980   24.5970    0.4610 C.ar   22  TYR22       0.0417
     11  CZ        -5.6940   24.1420    1.1780 C.ar   22  TYR22       0.1957
     12  OH        -5.2650   24.8220    2.2920 O.3    22  TYR22      -0.2866
     13  N         -5.2190   15.1340   12.9100 N.3   129  VAL129     -0.1245
     14  CA        -6.4760   15.2700   12.1770 C.3   129  VAL129      0.1561
     15  C         -6.3950   14.5080   10.8570 C.2   129  VAL129      0.2260
     16  O         -5.3180   14.3740   10.2780 O.2   129  VAL129     -0.2867
     17  CB        -6.8150   16.7460   11.8720 C.3   129  VAL129      0.0252
     18  CG1       -7.1340   17.4870   13.1690 C.3   129  VAL129      0.0019
     19  CG2       -5.6470   17.4150   11.1530 C.3   129  VAL129      0.0019
     20  N         -7.2210   15.3040    7.9330 N.3   131  GLY131     -0.1210
     21  CA        -6.8220   16.0830    6.7750 C.3   131  GLY131      0.1956
     22  C         -7.0650   17.5670    6.9890 C.2   131  GLY131      0.2612
     23  O         -7.1220   18.0480    8.1250 O.2   131  GLY131     -0.2717
     24  N         -7.2220   18.2850    5.8810 N.am  132  LEU132     -0.1965
     25  CA        -7.4520   19.7310    5.8710 C.3   132  LEU132      0.1728
     26  C         -8.6930   20.1790    6.6490 C.2   132  LEU132      0.2616
     27  O         -9.7890   19.6580    6.4370 O.2   132  LEU132     -0.2715
     28  CB        -7.5810   20.2100    4.4210 C.3   132  LEU132      0.0311
     29  CG        -7.7270   21.7100    4.1600 C.3   132  LEU132      0.0022
     30  CD1       -6.4070   22.3860    4.4610 C.3   132  LEU132      0.0001
     31  CD2       -8.1340   21.9550    2.7090 C.3   132  LEU132      0.0001
     32  N         -8.5190   21.1480    7.5460 N.am  133  LEU133     -0.1963
     33  CA        -9.6360   21.6910    8.3200 C.3   133  LEU133      0.1728
     34  C         -9.9900   23.0560    7.7360 C.2   133  LEU133      0.2617
     35  O         -9.2020   23.6380    6.9840 O.2   133  LEU133     -0.2715
     36  CB        -9.2570   21.8870    9.7930 C.3   133  LEU133      0.0311
     37  CG        -8.9170   20.6670   10.6510 C.3   133  LEU133      0.0022
     38  CD1       -8.5850   21.1220   12.0620 C.3   133  LEU133      0.0001
     39  CD2      -10.0920   19.7060   10.6570 C.3   133  LEU133      0.0001
     40  N        -11.1640   23.5760    8.0840 N.am  134  SER134     -0.1936
     41  CA       -11.5590   24.8860    7.5920 C.3   134  SER134      0.2055
     42  C        -10.6250   25.9040    8.2280 C.2   134  SER134      0.2643
     43  O         -9.9800   25.6230    9.2470 O.2   134  SER134     -0.2714
     44  CB       -13.0120   25.1990    7.9730 C.3   134  SER134      0.2130
     45  OG       -13.1460   25.4820    9.3590 O.3   134  SER134     -0.2179
     46  N        -10.5460   27.0880    7.6310 N.am  135  SER135     -0.1949
     47  CA        -9.6880   28.1370    8.1640 C.3   135  SER135      0.1924
     48  C        -10.1520   28.5620    9.5550 C.2   135  SER135      0.2314
     49  O         -9.3270   28.8090   10.4300 O.2   135  SER135     -0.2863
     50  CB        -9.6770   29.3490    7.2160 C.3   135  SER135      0.2116
     51  OG        -9.0510   29.0380    5.9900 O.3   135  SER135     -0.2180
     52  N         -9.0240   25.7310   12.0500 N.3   138  PHE138     -0.1227
     53  CA        -7.5740   25.7020   12.2040 C.3   138  PHE138      0.1736
     54  C         -7.0890   26.9020   13.0120 C.2   138  PHE138      0.2595
     55  O         -6.2870   26.7620   13.9460 O.2   138  PHE138     -0.2718
     56  CB        -6.8770   25.7080   10.8430 C.3   138  PHE138      0.0547
     57  CG        -5.3810   25.5870   10.9350 C.ar  138  PHE138     -0.0202
     58  CD1       -4.7790   24.3440   11.1260 C.ar  138  PHE138     -0.0042
     59  CD2       -4.5750   26.7140   10.8660 C.ar  138  PHE138     -0.0042
     60  CE1       -3.4010   24.2300   11.2450 C.ar  138  PHE138     -0.0003
     61  CE2       -3.1960   26.6130   10.9840 C.ar  138  PHE138     -0.0003
     62  CZ        -2.6030   25.3690   11.1760 C.ar  138  PHE138     -0.0000
     63  N         -7.5680   28.0880   12.6460 N.am  139  LEU139     -0.1980
     64  CA        -7.1720   29.3100   13.3420 C.3   139  LEU139      0.1596
     65  C         -7.6760   29.2790   14.7860 C.2   139  LEU139      0.2287
     66  O         -6.9870   29.7340   15.7050 O.2   139  LEU139     -0.2864
     67  CB        -7.7210   30.5480   12.6160 C.3   139  LEU139      0.0297
     68  CG        -7.1670   30.8280   11.2110 C.3   139  LEU139      0.0022
     69  CD1       -7.9400   31.9800   10.5760 C.3   139  LEU139      0.0001
     70  CD2       -5.6760   31.1630   11.2870 C.3   139  LEU139      0.0001
     71  N         -1.8960   22.9540   17.3310 N.3   147  PHE147     -0.1227
     72  CA        -1.6830   22.8340   15.8920 C.3   147  PHE147      0.1736
     73  C         -2.2720   21.5030   15.4220 C.2   147  PHE147      0.2595
     74  O         -1.7650   20.4330   15.7780 O.2   147  PHE147     -0.2718
     75  CB        -0.1680   22.9420   15.6010 C.3   147  PHE147      0.0547
     76  CG         0.2290   22.6370   14.1700 C.ar  147  PHE147     -0.0202
     77  CD1       -0.5690   23.0240   13.0980 C.ar  147  PHE147     -0.0042
     78  CD2        1.4290   21.9810   13.9010 C.ar  147  PHE147     -0.0042
     79  CE1       -0.1780   22.7610   11.7870 C.ar  147  PHE147     -0.0003
     80  CE2        1.8280   21.7140   12.5910 C.ar  147  PHE147     -0.0003
     81  CZ         1.0230   22.1040   11.5300 C.ar  147  PHE147     -0.0000
     82  N         -3.3790   21.5770   14.6740 N.am  148  HIS148     -0.1975
     83  CA        -4.0260   20.3700   14.1400 C.3   148  HIS148      0.1656
     84  C         -3.1390   19.9480   12.9890 C.2   148  HIS148      0.2291
     85  O         -3.0700   20.6140   11.9570 O.2   148  HIS148     -0.2864
     86  CB        -5.4490   20.6570   13.6570 C.3   148  HIS148      0.0771
     87  CG        -6.3730   21.0690   14.7530 C.ar  148  HIS148      0.0820
     88  ND1       -6.4840   22.3760   15.1690 N.ar  148  HIS148     -0.2267
     89  CD2       -7.1960   20.3460   15.5490 C.ar  148  HIS148      0.1154
     90  CE1       -7.3380   22.4440   16.1740 C.ar  148  HIS148      0.1986
     91  NE2       -7.7840   21.2260   16.4250 N.ar  148  HIS148     -0.2212
     92  N         -1.5780   16.8390   10.3260 N.3   150  THR150     -0.1218
     93  CA        -1.8610   15.5750    9.6490 C.3   150  THR150      0.1862
     94  C         -0.7390   14.5880    9.9380 C.2   150  THR150      0.2287
     95  O          0.3500   14.9760   10.3630 O.2   150  THR150     -0.2866
     96  CB        -1.9840   15.7210    8.1160 C.3   150  THR150      0.1770
     97  OG1       -0.7580   16.2270    7.5760 O.3   150  THR150     -0.2211
     98  CG2       -3.1350   16.6470    7.7530 C.3   150  THR150      0.0375
     99  N         -2.0930   19.4010    2.8630 N.3   165  PRO165     -0.2116
    100  CA        -1.1230   19.6240    3.9320 C.3   165  PRO165      0.1372
    101  C         -0.7190   18.2950    4.5700 C.2   165  PRO165      0.2244
    102  O         -1.2240   17.9270    5.6350 O.2   165  PRO165     -0.2868
    103  CB        -1.8820   20.5340    4.8960 C.3   165  PRO165      0.0268
    104  CG        -3.2800   20.0210    4.7910 C.3   165  PRO165      0.0207
    105  CD        -3.4540   19.7840    3.2910 C.3   165  PRO165      0.0892
    106  N          4.5310   18.8200    4.9200 N.3   169  HIS169     -0.1226
    107  CA         4.1540   20.2290    5.0560 C.3   169  HIS169      0.1752
    108  C          4.0020   20.6560    6.5170 C.2   169  HIS169      0.2595
    109  O          4.4530   21.7320    6.9080 O.2   169  HIS169     -0.2718
    110  CB         2.8300   20.4930    4.3290 C.3   169  HIS169      0.0759
    111  CG         2.2980   21.8750    4.5360 C.ar  169  HIS169      0.0818
    112  ND1        2.9170   22.9970    4.0300 N.ar  169  HIS169     -0.2268
    113  CD2        1.2300   22.3230    5.2390 C.ar  169  HIS169      0.1154
    114  CE1        2.2580   24.0750    4.4120 C.ar  169  HIS169      0.1986
    115  NE2        1.2290   23.6930    5.1470 N.ar  169  HIS169     -0.2212
    116  N          3.3420   19.8240    7.3160 N.am  170  GLU170     -0.1979
    117  CA         3.1270   20.1600    8.7170 C.3   170  GLU170      0.1602
    118  C          4.4420   20.2490    9.4900 C.2   170  GLU170      0.2287
    119  O          4.6910   21.2350   10.1820 O.2   170  GLU170     -0.2864
    120  CB         2.2180   19.1260    9.3890 C.3   170  GLU170      0.0415
    121  CG         0.9220   18.7750    8.6350 C.3   170  GLU170      0.1163
    122  CD        -0.1550   19.8530    8.7060 C.2   170  GLU170      0.3649
    123  OE1       -1.2910   19.5250    9.0860 O.co2 170  GLU170     -0.2457
    124  OE2        0.1240   21.0240    8.3750 O.co2 170  GLU170     -0.2457
    125  N          5.4700   24.0900    9.0260 N.3   174  HIS174     -0.1241
    126  CA         4.9170   24.7780   10.2040 C.3   174  HIS174      0.1621
    127  C          5.6380   24.6090   11.5430 C.2   174  HIS174      0.2264
    128  O          5.8720   25.5870   12.2500 O.2   174  HIS174     -0.2867
    129  CB         3.4620   24.3460   10.4030 C.3   174  HIS174      0.0745
    130  CG         2.4990   25.0130    9.4760 C.ar  174  HIS174      0.0817
    131  ND1        2.0730   26.3120    9.6580 N.ar  174  HIS174     -0.2268
    132  CD2        1.8870   24.5700    8.3530 C.ar  174  HIS174      0.1154
    133  CE1        1.2390   26.6390    8.6870 C.ar  174  HIS174      0.1986
    134  NE2        1.1090   25.6000    7.8820 N.ar  174  HIS174     -0.2212
    135  N         -7.7340   34.5060    6.3730 N.3   206  ALA206     -0.1245
    136  CA        -7.2080   33.2930    5.7740 C.3   206  ALA206      0.1562
    137  C         -6.3930   33.6380    4.5310 C.2   206  ALA206      0.2260
    138  O         -5.3280   33.0710    4.2970 O.2   206  ALA206     -0.2867
    139  CB        -8.3540   32.3530    5.4100 C.3   206  ALA206      0.0290
    140  N         -3.2690   35.1930    5.6920 N.3   209  TYR209     -0.1227
    141  CA        -2.4730   34.1070    6.2540 C.3   209  TYR209      0.1736
    142  C         -1.8000   33.3510    5.0950 C.2   209  TYR209      0.2595
    143  O         -0.6080   33.0430    5.1430 O.2   209  TYR209     -0.2718
    144  CB        -3.3870   33.1640    7.0410 C.3   209  TYR209      0.0548
    145  CG        -2.6680   32.0960    7.8470 C.ar  209  TYR209     -0.0200
    146  CD1       -2.2400   32.3390    9.1570 C.ar  209  TYR209     -0.0009
    147  CD2       -2.4460   30.8320    7.3040 C.ar  209  TYR209     -0.0009
    148  CE1       -1.6150   31.3450    9.9060 C.ar  209  TYR209      0.0417
    149  CE2       -1.8210   29.8300    8.0350 C.ar  209  TYR209      0.0417
    150  CZ        -1.4110   30.0920    9.3340 C.ar  209  TYR209      0.1957
    151  OH        -0.8030   29.0910   10.0540 O.3   209  TYR209     -0.2866
    152  N         -2.5690   33.0670    4.0470 N.am  210  TRP210     -0.1976
    153  CA        -2.0590   32.3450    2.8820 C.3   210  TRP210      0.1640
    154  C         -0.8770   33.0600    2.2230 C.2   210  TRP210      0.2290
    155  O          0.1430   32.4320    1.9070 O.2   210  TRP210     -0.2864
    156  CB        -3.1950   32.1270    1.8660 C.3   210  TRP210      0.0576
    157  CG        -2.8660   31.1680    0.7380 C.ar  210  TRP210      0.0006
    158  CD1       -2.3570   31.4850   -0.4900 C.ar  210  TRP210      0.0946
    159  CD2       -3.0380   29.7410    0.7400 C.ar  210  TRP210      0.0152
    160  NE1       -2.2120   30.3500   -1.2520 N.ar  210  TRP210     -0.2442
    161  CE2       -2.6210   29.2660   -0.5220 C.ar  210  TRP210      0.0810
    162  CE3       -3.5120   28.8210    1.6830 C.ar  210  TRP210      0.0012
    163  CZ2       -2.6510   27.9070   -0.8620 C.ar  210  TRP210      0.0191
    164  CZ3       -3.5430   27.4660    1.3410 C.ar  210  TRP210      0.0001
    165  CH2       -3.1160   27.0280    0.0800 C.ar  210  TRP210      0.0015
    166  N          1.7870   31.0870    4.8870 N.3   214  GLU214     -0.1245
    167  CA         1.8580   29.9330    3.9820 C.3   214  GLU214      0.1567
    168  C          2.7660   30.0690    2.7460 C.2   214  GLU214      0.2260
    169  O          3.5440   29.1590    2.4490 O.2   214  GLU214     -0.2867
    170  CB         0.4610   29.5280    3.5010 C.3   214  GLU214      0.0388
    171  CG        -0.4910   29.1080    4.6050 C.3   214  GLU214      0.1160
    172  CD        -0.2570   27.6960    5.1180 C.2   214  GLU214      0.3649
    173  OE1        0.7760   27.0690    4.7890 O.co2 214  GLU214     -0.2457
    174  OE2       -1.1230   27.2080    5.8700 O.co2 214  GLU214     -0.2457
@<TRIPOS>BOND
     1     4     3    2
     2     3     2    1
     3     5     2    1
     4     5     6    1
     5     2     1    1
     6   160   161   ar
     7   160   158   ar
     8     6     8   ar
     9     6     7   ar
    10   163   161   ar
    11   163   165   ar
    12     8    10   ar
    13   161   159   ar
    14   158   157   ar
    15     7     9   ar
    16   165   164   ar
    17    10    11   ar
    18   157   159   ar
    19   157   156    1
    20   159   162   ar
    21     9    11   ar
    22    11    12    1
    23   164   162   ar
    24   156   153    1
    25   155   154    2
    26   154   153    1
    27   169   168    2
    28    31    29    1
    29   168   167    1
    30    99   105    1
    31    99   100    1
    32   153   152    1
    33   105   104    1
    34   170   167    1
    35   170   171    1
    36   100   101    1
    37   100   103    1
    38   167   166    1
    39   112   114   ar
    40   112   111   ar
    41   152   142   am
    42    29    28    1
    43    29    30    1
    44   138   137    2
    45   110   111    1
    46   110   107    1
    47   114   115   ar
    48    28    25    1
    49   137   136    1
    50   111   113   ar
    51   101   102    2
    52   171   172    1
    53   173   172   ar
    54   104   103    1
    55   106   107    1
    56   107   108    1
    57   142   143    2
    58   142   141    1
    59   172   174   ar
    60   115   113   ar
    61   139   136    1
    62   140   141    1
    63   136   135    1
    64    25    24    1
    65    25    26    1
    66    24    22   am
    67    51    50    1
    68   141   144    1
    69    27    26    2
    70   108   109    2
    71   108   116   am
    72    26    32   am
    73    21    22    1
    74    21    20    1
    75    35    34    2
    76    22    23    2
    77   144   145    1
    78    50    47    1
    79   147   145   ar
    80   147   149   ar
    81   116   117    1
    82    32    33    1
    83    97    96    1
    84    41    44    1
    85    41    40    1
    86    41    42    1
    87    46    47    1
    88    46    42   am
    89    34    40   am
    90    34    33    1
    91    98    96    1
    92   145   146   ar
    93   134   132   ar
    94   134   133   ar
    95    44    45    1
    96   149   150   ar
    97    96    93    1
    98    47    48    1
    99    42    43    2
   100    33    36    1
   101   132   130   ar
   102   124   122   ar
   103   121   122    1
   104   121   120    1
   105   133   131   ar
   106   122   123   ar
   107   117   120    1
   108   117   118    1
   109   125   126    1
   110   146   148   ar
   111   150   148   ar
   112   150   151    1
   113   130   131   ar
   114   130   129    1
   115   118   119    2
   116    48    49    2
   117    93    94    1
   118    93    92    1
   119    36    37    1
   120    94    95    2
   121   126   129    1
   122   126   127    1
   123    16    15    2
   124    69    68    1
   125    37    39    1
   126    37    38    1
   127    56    57    1
   128    56    53    1
   129    15    14    1
   130    59    57   ar
   131    59    61   ar
   132    57    58   ar
   133    61    62   ar
   134    58    60   ar
   135    19    17    1
   136    62    60   ar
   137    68    70    1
   138    68    67    1
   139    81    79   ar
   140    81    80   ar
   141   127   128    2
   142    79    77   ar
   143    17    14    1
   144    17    18    1
   145    85    84    2
   146    52    53    1
   147    14    13    1
   148    53    54    1
   149    80    78   ar
   150    67    64    1
   151    63    54   am
   152    63    64    1
   153    84    83    1
   154    54    55    2
   155    77    76   ar
   156    64    65    1
   157    86    83    1
   158    86    87    1
   159    78    76   ar
   160    83    82    1
   161    76    75    1
   162    82    73   am
   163    87    88   ar
   164    87    89   ar
   165    65    66    2
   166    88    90   ar
   167    73    74    2
   168    73    72    1
   169    89    91   ar
   170    75    72    1
   171    72    71    1
   172    90    91   ar
