@<TRIPOS>MOLECULE
tmp/1mmvB03.pdb
 152 150 0 0 0
SMALL
GASTEIGER

@<TRIPOS>ATOM
      1  N          7.2270    5.5390   53.7220 N.3   107  CYS107     -0.1235
      2  CA         6.9260    4.3240   54.4820 C.3   107  CYS107      0.1677
      3  C          5.8460    3.4650   53.8330 C.2   107  CYS107      0.2270
      4  O          4.6930    3.8720   53.7140 O.2   107  CYS107     -0.2867
      5  CB         6.5030    4.6770   55.9160 C.3   107  CYS107      0.0956
      6  SG         6.3020    3.1970   56.9610 S.3   107  CYS107     -0.0801
      7  N         20.2460    3.7560   64.5680 N.3   170  GLN170     -0.1245
      8  CA        19.2530    2.7390   64.9110 C.3   170  GLN170      0.1566
      9  C         19.6200    2.2700   66.3280 C.2   170  GLN170      0.2260
     10  O         20.8000    2.2140   66.6640 O.2   170  GLN170     -0.2867
     11  CB        19.2970    1.5620   63.9260 C.3   170  GLN170      0.0367
     12  CG        18.6050    1.8150   62.5700 C.3   170  GLN170      0.0905
     13  CD        18.5300    0.5660   61.7010 C.2   170  GLN170      0.2608
     14  OE1       18.1590   -0.5160   62.1760 O.2   170  GLN170     -0.2717
     15  NE2       18.8670    0.7080   60.4210 N.am  170  GLN170     -0.0878
     16  N         22.2200   -1.9620   65.9480 N.3   173  ARG173     -0.1245
     17  CA        22.9200   -1.9870   64.6750 C.3   173  ARG173      0.1563
     18  C         24.3100   -2.5750   64.8910 C.2   173  ARG173      0.2260
     19  O         24.8420   -2.5220   65.9990 O.2   173  ARG173     -0.2867
     20  CB        23.0260   -0.5640   64.0950 C.3   173  ARG173      0.0307
     21  CG        22.3920   -0.4380   62.7280 C.3   173  ARG173      0.0489
     22  CD        22.7420    0.8530   62.0110 C.3   173  ARG173      0.2205
     23  NE        22.2840    0.7670   60.6290 N.pl3 173  ARG173     -0.0865
     24  CZ        22.4280    1.7200   59.7210 C.cat 173  ARG173      0.5346
     25  NH1       23.0270    2.8550   60.0400 N.pl3 173  ARG173      0.1354
     26  NH2       21.9580    1.5360   58.4930 N.pl3 173  ARG173      0.1354
     27  N         21.0330  -11.4480   61.6080 N.3   253  TRP253     -0.1227
     28  CA        20.6130  -10.0470   61.6710 C.3   253  TRP253      0.1737
     29  C         19.7250   -9.8560   62.8940 C.2   253  TRP253      0.2595
     30  O         19.2320  -10.8340   63.4530 O.2   253  TRP253     -0.2718
     31  CB        19.8660   -9.6480   60.3930 C.3   253  TRP253      0.0564
     32  CG        19.8940   -8.1610   60.1350 C.ar  253  TRP253      0.0003
     33  CD1       18.8790   -7.2670   60.3420 C.ar  253  TRP253      0.0946
     34  CD2       21.0120   -7.3990   59.6650 C.ar  253  TRP253      0.0152
     35  NE1       19.2990   -5.9950   60.0290 N.ar  253  TRP253     -0.2442
     36  CE2       20.6040   -6.0460   59.6120 C.ar  253  TRP253      0.0810
     37  CE3       22.3230   -7.7270   59.2830 C.ar  253  TRP253      0.0012
     38  CZ2       21.4560   -5.0220   59.1930 C.ar  253  TRP253      0.0191
     39  CZ3       23.1730   -6.7090   58.8660 C.ar  253  TRP253      0.0001
     40  CH2       22.7350   -5.3690   58.8240 C.ar  253  TRP253      0.0015
     41  N         19.5460   -8.6140   63.3350 N.am  254  TYR254     -0.1976
     42  CA        18.6980   -8.3700   64.4940 C.3   254  TYR254      0.1639
     43  C         17.2550   -8.3190   63.9930 C.2   254  TYR254      0.2290
     44  O         17.0040   -7.9990   62.8290 O.2   254  TYR254     -0.2864
     45  CB        19.1100   -7.0650   65.1940 C.3   254  TYR254      0.0560
     46  CG        19.2530   -5.8770   64.2670 C.ar  254  TYR254     -0.0198
     47  CD1       18.1910   -4.9940   64.0620 C.ar  254  TYR254     -0.0009
     48  CD2       20.4590   -5.6260   63.6070 C.ar  254  TYR254     -0.0009
     49  CE1       18.3320   -3.8790   63.2240 C.ar  254  TYR254      0.0417
     50  CE2       20.6050   -4.5230   62.7670 C.ar  254  TYR254      0.0417
     51  CZ        19.5390   -3.6530   62.5810 C.ar  254  TYR254      0.1957
     52  OH        19.6850   -2.5660   61.7490 O.3   254  TYR254     -0.2866
     53  N         13.9550   -3.4490   63.8990 N.3   257  PRO257     -0.2116
     54  CA        14.4570   -2.2420   63.2410 C.3   257  PRO257      0.1372
     55  C         13.9260   -1.0480   64.0650 C.2   257  PRO257      0.2244
     56  O         12.7160   -0.9400   64.2910 O.2   257  PRO257     -0.2868
     57  CB        13.8430   -2.3290   61.8480 C.3   257  PRO257      0.0268
     58  CG        12.5250   -2.9970   62.0980 C.3   257  PRO257      0.0207
     59  CD        12.8520   -4.0660   63.1340 C.3   257  PRO257      0.0892
     60  N         14.5510    3.0520   64.1030 N.3   259  VAL259     -0.1245
     61  CA        15.1570    4.3080   63.6760 C.3   259  VAL259      0.1561
     62  C         15.1960    5.2800   64.8430 C.2   259  VAL259      0.2260
     63  O         14.1690    5.5750   65.4390 O.2   259  VAL259     -0.2867
     64  CB        14.3800    4.8950   62.4990 C.3   259  VAL259      0.0252
     65  CG1       14.8430    6.3260   62.2060 C.3   259  VAL259      0.0019
     66  CG2       14.5940    4.0000   61.2740 C.3   259  VAL259      0.0019
     67  N         11.7860    5.1360   67.2120 N.3   276  PHE276     -0.1227
     68  CA        10.5810    4.3790   66.9330 C.3   276  PHE276      0.1736
     69  C         10.9560    3.0560   66.2580 C.2   276  PHE276      0.2596
     70  O         12.0090    2.9440   65.6330 O.2   276  PHE276     -0.2718
     71  CB         9.6140    5.2050   66.0710 C.3   276  PHE276      0.0547
     72  CG        10.1920    5.6660   64.7540 C.ar  276  PHE276     -0.0202
     73  CD1       10.2060    4.8250   63.6500 C.ar  276  PHE276     -0.0042
     74  CD2       10.6870    6.9620   64.6120 C.ar  276  PHE276     -0.0042
     75  CE1       10.6960    5.2640   62.4280 C.ar  276  PHE276     -0.0003
     76  CE2       11.1800    7.4070   63.3930 C.ar  276  PHE276     -0.0003
     77  CZ        11.1850    6.5620   62.2990 C.ar  276  PHE276     -0.0000
     78  N         10.1060    2.0490   66.4040 N.am  277  SER277     -0.1938
     79  CA        10.3910    0.7460   65.8160 C.3   277  SER277      0.2055
     80  C          9.1360    0.0570   65.2940 C.2   277  SER277      0.2644
     81  O          8.0250    0.3710   65.7120 O.2   277  SER277     -0.2714
     82  CB        11.0720   -0.1510   66.8530 C.3   277  SER277      0.2130
     83  OG        10.2410   -0.3320   67.9890 O.3   277  SER277     -0.2179
     84  N          9.3360   -0.8710   64.3620 N.am  278  GLY278     -0.1939
     85  CA         8.2450   -1.6370   63.7900 C.3   278  GLY278      0.2014
     86  C          8.7890   -3.0380   63.5530 C.2   278  GLY278      0.2639
     87  O          9.1680   -3.7220   64.5000 O.2   278  GLY278     -0.2714
     88  N          8.8100   -3.4650   62.2970 N.am  279  TRP279     -0.1959
     89  CA         9.3660   -4.7590   61.9220 C.3   279  TRP279      0.1771
     90  C          9.8860   -4.6610   60.4940 C.2   279  TRP279      0.2619
     91  O          9.5750   -3.7210   59.7730 O.2   279  TRP279     -0.2715
     92  CB         8.3520   -5.9030   62.0810 C.3   279  TRP279      0.0590
     93  CG         7.0460   -5.7400   61.3900 C.ar  279  TRP279      0.0006
     94  CD1        6.7830   -5.9460   60.0630 C.ar  279  TRP279      0.0946
     95  CD2        5.7960   -5.4010   61.9990 C.ar  279  TRP279      0.0152
     96  NE1        5.4460   -5.7640   59.8130 N.ar  279  TRP279     -0.2442
     97  CE2        4.8150   -5.4270   60.9840 C.ar  279  TRP279      0.0810
     98  CE3        5.4100   -5.0810   63.3090 C.ar  279  TRP279      0.0012
     99  CZ2        3.4660   -5.1450   61.2360 C.ar  279  TRP279      0.0191
    100  CZ3        4.0680   -4.8030   63.5610 C.ar  279  TRP279      0.0001
    101  CH2        3.1130   -4.8380   62.5270 C.ar  279  TRP279      0.0015
    102  N         10.6840   -5.6380   60.0970 N.am  280  TYR280     -0.1974
    103  CA        11.3210   -5.6340   58.7900 C.3   280  TYR280      0.1639
    104  C         10.5590   -6.1690   57.6090 C.2   280  TYR280      0.2290
    105  O          9.7390   -7.0760   57.7400 O.2   280  TYR280     -0.2864
    106  CB        12.6200   -6.4420   58.8470 C.3   280  TYR280      0.0560
    107  CG        13.8440   -5.6950   59.2980 C.ar  280  TYR280     -0.0198
    108  CD1       14.4430   -5.9720   60.5290 C.ar  280  TYR280     -0.0009
    109  CD2       14.4500   -4.7550   58.4620 C.ar  280  TYR280     -0.0009
    110  CE1       15.6270   -5.3340   60.9150 C.ar  280  TYR280      0.0417
    111  CE2       15.6280   -4.1180   58.8380 C.ar  280  TYR280      0.0417
    112  CZ        16.2110   -4.4140   60.0610 C.ar  280  TYR280      0.1957
    113  OH        17.3910   -3.8030   60.4070 O.3   280  TYR280     -0.2866
    114  N         14.9010   -5.3350   52.9710 N.3   284  GLU284     -0.1245
    115  CA        15.7480   -4.3520   53.6280 C.3   284  GLU284      0.1567
    116  C         17.0600   -5.0230   54.0300 C.2   284  GLU284      0.2260
    117  O         18.1350   -4.4400   53.8930 O.2   284  GLU284     -0.2867
    118  CB        15.0560   -3.7840   54.8670 C.3   284  GLU284      0.0388
    119  CG        13.6650   -3.2040   54.6130 C.3   284  GLU284      0.1160
    120  CD        13.1390   -2.4780   55.8360 C.2   284  GLU284      0.3649
    121  OE1       13.7860   -1.4880   56.2390 O.co2 284  GLU284     -0.2457
    122  OE2       12.1020   -2.8930   56.3980 O.co2 284  GLU284     -0.2457
    123  N         19.2910   -4.8310   50.4170 N.3   288  ARG288     -0.1231
    124  CA        20.1500   -3.7090   50.7710 C.3   288  ARG288      0.1694
    125  C         21.2930   -3.9730   51.7620 C.2   288  ARG288      0.2592
    126  O         22.4610   -3.7950   51.4220 O.2   288  ARG288     -0.2718
    127  CB        19.2860   -2.5420   51.2900 C.3   288  ARG288      0.0321
    128  CG        18.1370   -2.1350   50.3610 C.3   288  ARG288      0.0489
    129  CD        18.6300   -1.6970   48.9850 C.3   288  ARG288      0.2205
    130  NE        19.6680   -0.6760   49.0840 N.pl3 288  ARG288     -0.0865
    131  CZ        19.4430    0.5890   49.4160 C.cat 288  ARG288      0.5346
    132  NH1       18.2030    0.9950   49.6710 N.pl3 288  ARG288      0.1354
    133  NH2       20.4590    1.4390   49.5140 N.pl3 288  ARG288      0.1354
    134  N         20.9630   -4.3780   52.9820 N.am  289  ASP289     -0.1974
    135  CA        21.9820   -4.6020   54.0040 C.3   289  ASP289      0.1709
    136  C         22.9970   -5.6950   53.6640 C.2   289  ASP289      0.2293
    137  O         24.1660   -5.6040   54.0410 O.2   289  ASP289     -0.2864
    138  CB        21.3210   -4.9110   55.3570 C.3   289  ASP289      0.1436
    139  CG        20.3210   -3.8450   55.7790 C.2   289  ASP289      0.3671
    140  OD1       20.3540   -2.7320   55.2210 O.co2 289  ASP289     -0.2456
    141  OD2       19.5030   -4.1170   56.6800 O.co2 289  ASP289     -0.2456
    142  N         27.6620   -2.1830   51.6140 N.3   295  ARG295     -0.1245
    143  CA        27.2230   -2.7900   52.8710 C.3   295  ARG295      0.1563
    144  C         27.9580   -4.1290   53.0210 C.2   295  ARG295      0.2260
    145  O         29.1410   -4.2160   52.7020 O.2   295  ARG295     -0.2867
    146  CB        25.6980   -2.9860   52.8770 C.3   295  ARG295      0.0307
    147  CG        24.8960   -1.6640   52.8880 C.3   295  ARG295      0.0489
    148  CD        25.2030   -0.7870   54.1150 C.3   295  ARG295      0.2205
    149  NE        24.7000   -1.3460   55.3780 N.pl3 295  ARG295     -0.0865
    150  CZ        23.4340   -1.2770   55.7970 C.cat 295  ARG295      0.5346
    151  NH1       22.5120   -0.6680   55.0590 N.pl3 295  ARG295      0.1354
    152  NH2       23.0880   -1.8090   56.9670 N.pl3 295  ARG295      0.1354
@<TRIPOS>BOND
     1   129   130    1
     2   129   128    1
     3   130   131    2
     4   131   133    1
     5   131   132    1
     6   128   127    1
     7   123   124    1
     8   124   127    1
     9   124   125    1
    10   126   125    2
    11   142   143    1
    12   125   134   am
    13   145   144    2
    14   143   146    1
    15   143   144    1
    16   146   147    1
    17   147   148    1
    18   114   115    1
    19   134   135    1
    20   115   116    1
    21   115   118    1
    22   136   135    1
    23   136   137    2
    24     4     3    2
    25     1     2    1
    26     3     2    1
    27   117   116    2
    28   135   138    1
    29   148   149    1
    30     2     5    1
    31   119   118    1
    32   119   120    1
    33   151   150    1
    34   140   139   ar
    35   138   139    1
    36   149   150    2
    37   139   141   ar
    38   150   152    1
    39   120   121   ar
    40   120   122   ar
    41     5     6    1
    42   104   105    2
    43   104   103    1
    44   109   111   ar
    45   109   107   ar
    46    26    24    1
    47   103   106    1
    48   103   102    1
    49    40    39   ar
    50    40    38   ar
    51   111   112   ar
    52   106   107    1
    53    39    37   ar
    54    38    36   ar
    55    37    34   ar
    56   107   108   ar
    57    36    34   ar
    58    36    35   ar
    59    34    32   ar
    60    24    25    1
    61    24    23    2
    62    91    90    2
    63    96    94   ar
    64    96    97   ar
    65    35    33   ar
    66   112   113    1
    67   112   110   ar
    68    94    93   ar
    69   102    90   am
    70    32    33   ar
    71    32    31    1
    72    31    28    1
    73    15    13   am
    74    90    89    1
    75   108   110   ar
    76    23    22    1
    77    97    99   ar
    78    97    95   ar
    79    99   101   ar
    80    66    64    1
    81    93    95   ar
    82    93    92    1
    83    27    28    1
    84    28    29    1
    85    13    14    2
    86    13    12    1
    87    52    51    1
    88    57    58    1
    89    57    54    1
    90    89    92    1
    91    89    88    1
    92    95    98   ar
    93    22    21    1
    94    58    59    1
    95    65    64    1
    96    88    86   am
    97    77    75   ar
    98    77    76   ar
    99    75    73   ar
   100    64    61    1
   101   101   100   ar
   102    12    11    1
   103    51    50   ar
   104    51    49   ar
   105    21    20    1
   106    50    48   ar
   107    44    43    2
   108    29    41   am
   109    29    30    2
   110    59    53    1
   111    49    47   ar
   112    54    53    1
   113    54    55    1
   114    98   100   ar
   115    41    42    1
   116    76    74   ar
   117    86    85    1
   118    86    87    2
   119    48    46   ar
   120    73    72   ar
   121    61    60    1
   122    61    62    1
   123    85    84    1
   124    11     8    1
   125    43    42    1
   126    47    46   ar
   127    55    56    2
   128    20    17    1
   129    46    45    1
   130    84    80   am
   131    42    45    1
   132     7     8    1
   133    74    72   ar
   134    17    18    1
   135    17    16    1
   136    72    71    1
   137    62    63    2
   138    18    19    2
   139     8     9    1
   140    80    81    2
   141    80    79    1
   142    70    69    2
   143    79    78    1
   144    79    82    1
   145    71    68    1
   146    69    78   am
   147    69    68    1
   148     9    10    2
   149    82    83    1
   150    68    67    1
