@<TRIPOS>MOLECULE
tmp/1mmwA03.pdb
 160 158 0 0 0
SMALL
GASTEIGER

@<TRIPOS>ATOM
      1  N         15.4970    7.4210   28.6360 N.3   106  CYS106     -0.1235
      2  CA        16.2750    6.4240   27.9010 C.3   106  CYS106      0.1677
      3  C         17.5850    6.0900   28.5950 C.2   106  CYS106      0.2270
      4  O         18.4180    6.9640   28.8120 O.2   106  CYS106     -0.2867
      5  CB        16.5720    6.9300   26.4770 C.3   106  CYS106      0.0956
      6  SG        17.4360    5.7290   25.4320 S.3   106  CYS106     -0.0801
      7  N          4.3470    0.9040   17.8520 N.3   169  GLN169     -0.1245
      8  CA         5.6820    0.4230   17.5050 C.3   169  GLN169      0.1566
      9  C          5.5630   -0.1580   16.0930 C.2   169  GLN169      0.2260
     10  O          4.5180   -0.7150   15.7470 O.2   169  GLN169     -0.2867
     11  CB         6.1460   -0.6720   18.4670 C.3   169  GLN169      0.0367
     12  CG         6.6260   -0.1830   19.8300 C.3   169  GLN169      0.0905
     13  CD         7.2250   -1.3090   20.6450 C.2   169  GLN169      0.2608
     14  OE1        7.9970   -2.1100   20.1280 O.2   169  GLN169     -0.2717
     15  NE2        6.8760   -1.3750   21.9220 N.am  169  GLN169     -0.0878
     16  N          4.7320   -5.0550   16.3650 N.3   172  ARG172     -0.1245
     17  CA         4.0310   -5.4200   17.5970 C.3   172  ARG172      0.1563
     18  C          2.9730   -6.5020   17.3360 C.2   172  ARG172      0.2260
     19  O          2.4480   -6.6180   16.2300 O.2   172  ARG172     -0.2867
     20  CB         3.3670   -4.1970   18.2360 C.3   172  ARG172      0.0307
     21  CG         4.0720   -3.7290   19.4980 C.3   172  ARG172      0.0489
     22  CD         3.2090   -2.8060   20.3460 C.3   172  ARG172      0.2205
     23  NE         3.8140   -2.6110   21.6610 N.pl3 172  ARG172     -0.0865
     24  CZ         3.2360   -1.9810   22.6820 C.cat 172  ARG172      0.5346
     25  NH1        2.0180   -1.4700   22.5580 N.pl3 172  ARG172      0.1354
     26  NH2        3.8860   -1.8570   23.8310 N.pl3 172  ARG172      0.1354
     27  N          9.6560  -13.4500   20.6180 N.3   252  TRP252     -0.1227
     28  CA         9.5410  -11.9940   20.5780 C.3   252  TRP252      0.1737
     29  C         10.3040  -11.4550   19.3660 C.2   252  TRP252      0.2595
     30  O         11.1660  -12.1370   18.8140 O.2   252  TRP252     -0.2718
     31  CB        10.0710  -11.3690   21.8730 C.3   252  TRP252      0.0564
     32  CG         9.4790  -10.0110   22.1510 C.ar  252  TRP252      0.0003
     33  CD1       10.0880   -8.7980   21.9920 C.ar  252  TRP252      0.0946
     34  CD2        8.1450   -9.7320   22.5990 C.ar  252  TRP252      0.0152
     35  NE1        9.2200   -7.7830   22.3150 N.ar  252  TRP252     -0.2442
     36  CE2        8.0210   -8.3270   22.6890 C.ar  252  TRP252      0.0810
     37  CE3        7.0420  -10.5330   22.9320 C.ar  252  TRP252      0.0012
     38  CZ2        6.8380   -7.7040   23.1000 C.ar  252  TRP252      0.0191
     39  CZ3        5.8640   -9.9110   23.3400 C.ar  252  TRP252      0.0001
     40  CH2        5.7750   -8.5070   23.4200 C.ar  252  TRP252      0.0015
     41  N          9.9740  -10.2380   18.9450 N.am  253  TYR253     -0.1976
     42  CA        10.6320   -9.6330   17.7870 C.3   253  TYR253      0.1639
     43  C         11.9240   -8.9570   18.2070 C.2   253  TYR253      0.2290
     44  O         12.0460   -8.4840   19.3370 O.2   253  TYR253     -0.2864
     45  CB         9.6810   -8.6450   17.1050 C.3   253  TYR253      0.0560
     46  CG         9.0330   -7.6450   18.0420 C.ar  253  TYR253     -0.0198
     47  CD1        9.6430   -6.4160   18.3140 C.ar  253  TYR253     -0.0009
     48  CD2        7.8000   -7.9210   18.6470 C.ar  253  TYR253     -0.0009
     49  CE1        9.0460   -5.4900   19.1570 C.ar  253  TYR253      0.0417
     50  CE2        7.1900   -6.9930   19.5000 C.ar  253  TYR253      0.0417
     51  CZ         7.8190   -5.7780   19.7450 C.ar  253  TYR253      0.1957
     52  OH         7.2170   -4.8410   20.5520 O.3   253  TYR253     -0.2866
     53  N         13.0070   -3.1850   18.3630 N.3   256  PRO256     -0.2116
     54  CA        12.1330   -2.3020   19.1450 C.3   256  PRO256      0.1372
     55  C         12.1220   -0.9440   18.4390 C.2   256  PRO256      0.2244
     56  O         13.1480   -0.2610   18.3710 O.2   256  PRO256     -0.2868
     57  CB        12.8120   -2.2660   20.5160 C.3   256  PRO256      0.0268
     58  CG        14.2670   -2.3940   20.1780 C.3   256  PRO256      0.0207
     59  CD        14.2950   -3.4180   19.0520 C.3   256  PRO256      0.0892
     60  N          9.8710    2.5240   18.4000 N.3   258  VAL258     -0.1245
     61  CA         8.8270    3.4310   18.8580 C.3   258  VAL258      0.1561
     62  C          8.3630    4.2900   17.6940 C.2   258  VAL258      0.2260
     63  O          9.1610    5.0040   17.0890 O.2   258  VAL258     -0.2867
     64  CB         9.3570    4.3370   19.9800 C.3   258  VAL258      0.0252
     65  CG1        8.2730    5.3340   20.4090 C.3   258  VAL258      0.0019
     66  CG2        9.8090    3.4750   21.1670 C.3   258  VAL258      0.0019
     67  N         11.5930    5.5860   15.4100 N.3   275  PHE275     -0.1227
     68  CA        13.0040    5.3930   15.7120 C.3   275  PHE275      0.1736
     69  C         13.1950    4.0400   16.3810 C.2   275  PHE275      0.2596
     70  O         12.2710    3.5180   17.0110 O.2   275  PHE275     -0.2718
     71  CB        13.5330    6.5420   16.5910 C.3   275  PHE275      0.0547
     72  CG        12.7320    6.7840   17.8480 C.ar  275  PHE275     -0.0202
     73  CD1       12.9940    6.0660   19.0070 C.ar  275  PHE275     -0.0042
     74  CD2       11.7380    7.7580   17.8790 C.ar  275  PHE275     -0.0042
     75  CE1       12.2810    6.3190   20.1880 C.ar  275  PHE275     -0.0003
     76  CE2       11.0160    8.0170   19.0570 C.ar  275  PHE275     -0.0003
     77  CZ        11.2920    7.3000   20.2090 C.ar  275  PHE275     -0.0000
     78  N         14.3870    3.4660   16.2240 N.am  276  SER276     -0.1938
     79  CA        14.6770    2.1640   16.7910 C.3   276  SER276      0.2055
     80  C         16.1190    2.0150   17.2510 C.2   276  SER276      0.2644
     81  O         17.0130    2.7030   16.7590 O.2   276  SER276     -0.2714
     82  CB        14.3750    1.0620   15.7700 C.3   276  SER276      0.2130
     83  OG        15.1540    1.2050   14.5920 O.3   276  SER276     -0.2179
     84  N         16.3210    1.0980   18.1990 N.am  277  GLY277     -0.1939
     85  CA        17.6480    0.8070   18.7260 C.3   277  GLY277      0.2014
     86  C         17.6780   -0.6990   18.8880 C.2   277  GLY277      0.2639
     87  O         17.5270   -1.4310   17.9140 O.2   277  GLY277     -0.2714
     88  N         17.8850   -1.1650   20.1120 N.am  278  TRP278     -0.1959
     89  CA        17.8590   -2.5910   20.3890 C.3   278  TRP278      0.1771
     90  C         17.3960   -2.7580   21.8270 C.2   278  TRP278      0.2620
     91  O         17.4790   -1.8320   22.6340 O.2   278  TRP278     -0.2715
     92  CB        19.2240   -3.2530   20.1520 C.3   278  TRP278      0.0590
     93  CG        20.3700   -2.6570   20.8970 C.ar  278  TRP278      0.0006
     94  CD1       20.6530   -2.8020   22.2200 C.ar  278  TRP278      0.0946
     95  CD2       21.4170   -1.8490   20.3450 C.ar  278  TRP278      0.0152
     96  NE1       21.8170   -2.1400   22.5300 N.ar  278  TRP278     -0.2442
     97  CE2       22.3080   -1.5450   21.3970 C.ar  278  TRP278      0.0810
     98  CE3       21.6920   -1.3520   19.0640 C.ar  278  TRP278      0.0012
     99  CZ2       23.4560   -0.7640   21.2100 C.ar  278  TRP278      0.0191
    100  CZ3       22.8340   -0.5740   18.8750 C.ar  278  TRP278      0.0001
    101  CH2       23.7010   -0.2900   19.9420 C.ar  278  TRP278      0.0015
    102  N         16.8850   -3.9380   22.1270 N.am  279  TYR279     -0.1960
    103  CA        16.3450   -4.2550   23.4430 C.3   279  TYR279      0.1771
    104  C         17.2890   -4.4250   24.6030 C.2   279  TYR279      0.2619
    105  O         18.4210   -4.8710   24.4370 O.2   279  TYR279     -0.2715
    106  CB        15.5410   -5.5510   23.3650 C.3   279  TYR279      0.0574
    107  CG        14.1070   -5.3900   22.9660 C.ar  279  TYR279     -0.0198
    108  CD1       13.6340   -5.9090   21.7630 C.ar  279  TYR279     -0.0009
    109  CD2       13.2070   -4.7570   23.8140 C.ar  279  TYR279     -0.0009
    110  CE1       12.2810   -5.8060   21.4200 C.ar  279  TYR279      0.0417
    111  CE2       11.8690   -4.6490   23.4860 C.ar  279  TYR279      0.0417
    112  CZ        11.4120   -5.1730   22.2900 C.ar  279  TYR279      0.1957
    113  OH        10.0830   -5.0500   21.9810 O.3   279  TYR279     -0.2866
    114  N         16.7890   -4.0700   25.7860 N.am  280  MET280     -0.1977
    115  CA        17.4910   -4.3000   27.0390 C.3   280  MET280      0.1605
    116  C         16.5990   -5.4540   27.4990 C.2   280  MET280      0.2287
    117  O         15.3710   -5.3390   27.4700 O.2   280  MET280     -0.2864
    118  CB        17.3840   -3.1170   28.0140 C.3   280  MET280      0.0413
    119  CG        18.0290   -3.4280   29.3720 C.3   280  MET280      0.0598
    120  SD        18.2550   -2.0540   30.5260 S.3   280  MET280     -0.1393
    121  CE        16.5200   -1.7060   30.9430 C.3   280  MET280      0.0692
    122  N         12.9340   -5.4140   29.3020 N.3   283  GLU283     -0.1245
    123  CA        11.7650   -4.8560   28.6380 C.3   283  GLU283      0.1567
    124  C         10.8300   -5.9700   28.2020 C.2   283  GLU283      0.2260
    125  O          9.6060   -5.8440   28.2920 O.2   283  GLU283     -0.2867
    126  CB        12.1580   -4.0370   27.4050 C.3   283  GLU283      0.0388
    127  CG        12.9890   -2.7990   27.7030 C.3   283  GLU283      0.1160
    128  CD        13.3190   -2.0130   26.4460 C.2   283  GLU283      0.3649
    129  OE1       12.4520   -1.2490   25.9620 O.co2 283  GLU283     -0.2457
    130  OE2       14.4460   -2.1760   25.9370 O.co2 283  GLU283     -0.2457
    131  N          8.6940   -6.8220   31.7390 N.3   287  ARG287     -0.1231
    132  CA         7.4850   -6.0830   31.3970 C.3   287  ARG287      0.1694
    133  C          6.5140   -6.7230   30.3910 C.2   287  ARG287      0.2592
    134  O          5.3480   -6.9490   30.7150 O.2   287  ARG287     -0.2718
    135  CB         7.8630   -4.6770   30.9000 C.3   287  ARG287      0.0321
    136  CG         8.6930   -3.8410   31.8900 C.3   287  ARG287      0.0489
    137  CD         8.0260   -3.7260   33.2640 C.3   287  ARG287      0.2205
    138  NE         6.6470   -3.2490   33.1780 N.pl3 287  ARG287     -0.0865
    139  CZ         6.2940   -2.0010   32.8760 C.cat 287  ARG287      0.5346
    140  NH1        7.2180   -1.0780   32.6340 N.pl3 287  ARG287      0.1354
    141  NH2        5.0050   -1.6770   32.7870 N.pl3 287  ARG287      0.1354
    142  N          6.9800   -7.0030   29.1760 N.am  288  ASP288     -0.1974
    143  CA         6.1000   -7.5710   28.1560 C.3   288  ASP288      0.1709
    144  C          5.5680   -8.9560   28.5170 C.2   288  ASP288      0.2293
    145  O          4.4050   -9.2650   28.2570 O.2   288  ASP288     -0.2864
    146  CB         6.8180   -7.6150   26.8000 C.3   288  ASP288      0.1436
    147  CG         7.3470   -6.2520   26.3780 C.2   288  ASP288      0.3671
    148  OD1        6.6790   -5.2360   26.6800 O.co2 288  ASP288     -0.2456
    149  OD2        8.4240   -6.1960   25.7420 O.co2 288  ASP288     -0.2456
    150  N         -0.1170   -7.6910   30.5840 N.3   294  ARG294     -0.1245
    151  CA         0.5420   -8.0090   29.3240 C.3   294  ARG294      0.1563
    152  C          0.3910   -9.5100   29.1150 C.2   294  ARG294      0.2260
    153  O         -0.7010  -10.0400   29.3230 O.2   294  ARG294     -0.2867
    154  CB         2.0170   -7.5840   29.3470 C.3   294  ARG294      0.0307
    155  CG         2.2110   -6.0610   29.3630 C.3   294  ARG294      0.0489
    156  CD         1.5530   -5.3720   28.1660 C.3   294  ARG294      0.2205
    157  NE         2.2030   -5.6960   26.8950 N.pl3 294  ARG294     -0.0865
    158  CZ         3.3950   -5.2390   26.5110 C.cat 294  ARG294      0.5346
    159  NH1        4.0860   -4.4230   27.2910 N.pl3 294  ARG294      0.1354
    160  NH2        3.9030   -5.6140   25.3460 N.pl3 294  ARG294      0.1354
@<TRIPOS>BOND
     1    83    82    1
     2    67    68    1
     3    68    69    1
     4    68    71    1
     5    10     9    2
     6    82    79    1
     7     9     8    1
     8    78    69   am
     9    78    79    1
    10    19    18    2
    11    16    17    1
    12    69    70    2
    13    71    72    1
    14    81    80    2
    15    79    80    1
    16    63    62    2
    17    45    42    1
    18    45    46    1
    19    80    84   am
    20    18    17    1
    21     8     7    1
    22     8    11    1
    23    17    20    1
    24    62    61    1
    25    42    43    1
    26    42    41    1
    27    72    74   ar
    28    72    73   ar
    29    74    76   ar
    30    87    86    2
    31    46    47   ar
    32    46    48   ar
    33    84    85    1
    34    43    44    2
    35    20    21    1
    36    47    49   ar
    37    53    59    1
    38    53    54    1
    39    56    55    2
    40    60    61    1
    41    55    54    1
    42    11    12    1
    43    48    50   ar
    44    85    86    1
    45    30    29    2
    46    61    64    1
    47   100    98   ar
    48   100   101   ar
    49    86    88   am
    50    41    29   am
    51    73    75   ar
    52    59    58    1
    53    76    77   ar
    54    98    95   ar
    55    54    57    1
    56    49    51   ar
    57    29    28    1
    58    21    22    1
    59    50    51   ar
    60    51    52    1
    61    12    13    1
    62   101    99   ar
    63    64    65    1
    64    64    66    1
    65    88    89    1
    66    14    13    2
    67    92    89    1
    68    92    93    1
    69    58    57    1
    70    75    77   ar
    71    95    93   ar
    72    95    97   ar
    73    22    23    1
    74    89    90    1
    75    28    27    1
    76    28    31    1
    77    13    15   am
    78    93    94   ar
    79    99    97   ar
    80    97    96   ar
    81   110   108   ar
    82   110   112   ar
    83    23    24    2
    84   108   107   ar
    85    90   102   am
    86    90    91    2
    87    31    32    1
    88   113   112    1
    89    33    32   ar
    90    33    35   ar
    91   102   103    1
    92    32    34   ar
    93    94    96   ar
    94   112   111   ar
    95    35    36   ar
    96    25    24    1
    97    34    36   ar
    98    34    37   ar
    99    24    26    1
   100    36    38   ar
   101    37    39   ar
   102   107   106    1
   103   107   109   ar
   104    38    40   ar
   105    39    40   ar
   106   106   103    1
   107   103   104    1
   108   111   109   ar
   109   105   104    2
   110   104   114   am
   111   160   158    1
   112     6     5    1
   113   149   147   ar
   114   114   115    1
   115   130   128   ar
   116   129   128   ar
   117   147   148   ar
   118   147   146    1
   119   128   127    1
   120     5     2    1
   121   158   157    2
   122   158   159    1
   123   146   143    1
   124   157   156    1
   125   115   116    1
   126   115   118    1
   127   126   127    1
   128   126   123    1
   129   117   116    2
   130     2     3    1
   131     2     1    1
   132   118   119    1
   133   143   144    1
   134   143   142    1
   135   156   155    1
   136   124   125    2
   137   124   123    1
   138   145   144    2
   139     3     4    2
   140   123   122    1
   141   152   153    2
   142   152   151    1
   143   142   133   am
   144   151   154    1
   145   151   150    1
   146   154   155    1
   147   119   120    1
   148   133   134    2
   149   133   132    1
   150   120   121    1
   151   135   132    1
   152   135   136    1
   153   132   131    1
   154   136   137    1
   155   140   139    1
   156   141   139    1
   157   139   138    2
   158   138   137    1
