@<TRIPOS>MOLECULE
tmp/1mmxB00.pdb
 130 124 0 0 0
SMALL
GASTEIGER

@<TRIPOS>ATOM
      1  N         26.9490   16.1660   36.9590 N.3    57  ASP57      -0.1239
      2  CA        26.0170   15.1110   36.7000 C.3    57  ASP57       0.1674
      3  C         24.6710   15.7490   36.6040 C.2    57  ASP57       0.2266
      4  O         24.2020   16.3900   37.5480 O.2    57  ASP57      -0.2867
      5  CB        26.0770   14.0440   37.8190 C.3    57  ASP57       0.1410
      6  CG        25.0170   12.9820   37.6640 C.2    57  ASP57       0.3668
      7  OD1       24.2660   12.9100   36.7040 O.co2  57  ASP57      -0.2456
      8  OD2       24.9480   12.1640   38.6860 O.co2  57  ASP57      -0.2456
      9  N         21.6710   14.3270   36.3500 N.3    59  TYR59      -0.1241
     10  CA        20.4690   13.6190   36.7970 C.3    59  TYR59       0.1605
     11  C         19.9620   13.8660   38.1880 C.2    59  TYR59       0.2264
     12  O         18.7450   13.8060   38.4690 O.2    59  TYR59      -0.2867
     13  CB        20.5850   12.1040   36.5800 C.3    59  TYR59       0.0534
     14  CG        20.6630   11.6990   35.1180 C.ar   59  TYR59      -0.0201
     15  CD1       21.7990   11.0620   34.6120 C.ar   59  TYR59      -0.0009
     16  CD2       19.5970   11.9410   34.2520 C.ar   59  TYR59      -0.0009
     17  CE1       21.8570   10.6590   33.2770 C.ar   59  TYR59       0.0417
     18  CE2       19.6470   11.5700   32.9080 C.ar   59  TYR59       0.0417
     19  CZ        20.7880   10.9230   32.4200 C.ar   59  TYR59       0.1957
     20  OH        20.8350   10.5290   31.0880 O.3    59  TYR59      -0.2866
     21  N         14.3280    5.4640   32.2710 N.3    69  GLY69      -0.1210
     22  CA        14.9110    4.1420   32.2160 C.3    69  GLY69       0.1956
     23  C         15.4400    3.8400   30.8420 C.2    69  GLY69       0.2611
     24  O         15.4600    4.7020   29.9930 O.2    69  GLY69      -0.2717
     25  N         15.8530    2.6090   30.6160 N.am   70  ARG70      -0.1979
     26  CA        16.3780    2.1340   29.3260 C.3    70  ARG70       0.1597
     27  C         15.3350    1.4600   28.4270 C.2    70  ARG70       0.2287
     28  O         14.5180    0.6290   28.8710 O.2    70  ARG70      -0.2864
     29  CB        17.5170    1.1230   29.5300 C.3    70  ARG70       0.0334
     30  CG        18.6560    1.7340   30.3240 C.3    70  ARG70       0.0492
     31  CD        19.8140    0.7940   30.7040 C.3    70  ARG70       0.2205
     32  NE        20.9130    1.5990   31.2300 N.pl3  70  ARG70      -0.0865
     33  CZ        21.0210    2.0560   32.4740 C.cat  70  ARG70       0.5346
     34  NH1       20.1050    1.7790   33.3800 N.pl3  70  ARG70       0.1354
     35  NH2       22.0590    2.8180   32.7950 N.pl3  70  ARG70       0.1354
     36  N         18.3430    5.9640   26.9260 N.3    94  LEU94      -0.1231
     37  CA        18.3160    6.0680   28.3920 C.3    94  LEU94       0.1693
     38  C         17.7460    7.4350   28.7990 C.2    94  LEU94       0.2592
     39  O         18.1510    8.4540   28.2350 O.2    94  LEU94      -0.2718
     40  CB        19.7670    5.9360   28.9240 C.3    94  LEU94       0.0284
     41  CG        19.8990    6.4350   30.3390 C.3    94  LEU94       0.0019
     42  CD1       19.2850    5.4190   31.3120 C.3    94  LEU94       0.0001
     43  CD2       21.3880    6.5160   30.6380 C.3    94  LEU94       0.0001
     44  N         16.7870    7.4520   29.7450 N.am   95  HIS95      -0.1976
     45  CA        16.1580    8.6680   30.2400 C.3    95  HIS95       0.1656
     46  C         15.7790    9.6730   29.1550 C.2    95  HIS95       0.2291
     47  O         16.0650   10.8700   29.2300 O.2    95  HIS95      -0.2864
     48  CB        17.0150    9.3060   31.3080 C.3    95  HIS95       0.0771
     49  CG        17.2240    8.3850   32.4700 C.ar   95  HIS95       0.0820
     50  ND1       16.2090    7.5470   32.9330 N.ar   95  HIS95      -0.2267
     51  CD2       18.3160    8.2040   33.2590 C.ar   95  HIS95       0.1154
     52  CE1       16.6880    6.8890   33.9690 C.ar   95  HIS95       0.1986
     53  NE2       17.9580    7.2570   34.1920 N.ar   95  HIS95      -0.2212
     54  N         14.2040   11.9720   39.8830 N.3   169  HIS169     -0.1241
     55  CA        15.4630   11.3260   40.1620 C.3   169  HIS169      0.1621
     56  C         16.2620   11.7840   41.3740 C.2   169  HIS169      0.2264
     57  O         17.4720   11.8190   41.3620 O.2   169  HIS169     -0.2867
     58  CB        16.2820   11.3770   38.8510 C.3   169  HIS169      0.0745
     59  CG        17.2830   10.2630   38.7170 C.ar  169  HIS169      0.0817
     60  ND1       18.4240   10.1910   39.5140 N.ar  169  HIS169     -0.2268
     61  CD2       17.3130    9.2090   37.8390 C.ar  169  HIS169      0.1154
     62  CE1       19.0970    9.1050   39.1540 C.ar  169  HIS169      0.1986
     63  NE2       18.4550    8.5060   38.1380 N.ar  169  HIS169     -0.2212
     64  N         18.2460   11.6150   44.8860 N.3   171  TYR171     -0.1241
     65  CA        19.0670   10.6690   45.5670 C.3   171  TYR171      0.1605
     66  C         19.0190   11.0620   47.0190 C.2   171  TYR171      0.2264
     67  O         19.2660   12.2130   47.3680 O.2   171  TYR171     -0.2867
     68  CB        20.5580   10.8180   45.2240 C.3   171  TYR171      0.0534
     69  CG        20.9580   10.2430   43.8870 C.ar  171  TYR171     -0.0201
     70  CD1       20.9340   11.0420   42.7340 C.ar  171  TYR171     -0.0009
     71  CD2       21.3970    8.9140   43.7780 C.ar  171  TYR171     -0.0009
     72  CE1       21.3180   10.5180   41.4940 C.ar  171  TYR171      0.0417
     73  CE2       21.7960    8.3770   42.5450 C.ar  171  TYR171      0.0417
     74  CZ        21.7390    9.1810   41.4000 C.ar  171  TYR171      0.1957
     75  OH        22.1000    8.6420   40.1720 O.3   171  TYR171     -0.2866
     76  N         22.4560   -3.4200   30.9230 N.3   202  GLU202     -0.1245
     77  CA        21.3220   -3.1170   31.7530 C.3   202  GLU202      0.1567
     78  C         19.9540   -3.1770   31.1800 C.2   202  GLU202      0.2260
     79  O         19.0540   -2.6100   31.8120 O.2   202  GLU202     -0.2867
     80  CB        21.5020   -1.8680   32.6370 C.3   202  GLU202      0.0388
     81  CG        22.7710   -1.9500   33.5280 C.3   202  GLU202      0.1160
     82  CD        23.0300   -0.6880   34.3210 C.2   202  GLU202      0.3649
     83  OE1       22.3120    0.2890   34.2230 O.co2 202  GLU202     -0.2457
     84  OE2       24.0920   -0.7260   35.1050 O.co2 202  GLU202     -0.2457
     85  N         20.2190   -1.6640   41.2610 N.3   242  ASP242     -0.1239
     86  CA        19.9130   -0.8350   40.1210 C.3   242  ASP242      0.1674
     87  C         18.7620   -1.5290   39.4090 C.2   242  ASP242      0.2266
     88  O         18.8740   -1.9330   38.2340 O.2   242  ASP242     -0.2867
     89  CB        21.0920   -0.7290   39.1530 C.3   242  ASP242      0.1410
     90  CG        20.8580    0.4390   38.2300 C.2   242  ASP242      0.3668
     91  OD1       19.8460    1.1150   38.2410 O.co2 242  ASP242     -0.2456
     92  OD2       21.8590    0.6850   37.4570 O.co2 242  ASP242     -0.2456
     93  N         12.1860    1.9490   40.8550 N.3   276  VAL276     -0.1245
     94  CA        13.5340    1.5710   40.4140 C.3   276  VAL276      0.1561
     95  C         14.4150    2.1050   41.4940 C.2   276  VAL276      0.2260
     96  O         14.2910    3.3030   41.8060 O.2   276  VAL276     -0.2867
     97  CB        13.9030    2.2430   39.0770 C.3   276  VAL276      0.0252
     98  CG1       15.4030    1.9900   38.7480 C.3   276  VAL276      0.0019
     99  CG2       13.0380    1.6270   37.9830 C.3   276  VAL276      0.0019
    100  N         18.3250    2.7240   42.6640 N.3   278  PHE278     -0.1241
    101  CA        19.7370    2.6970   42.1740 C.3   278  PHE278      0.1605
    102  C         20.5100    3.2400   43.3190 C.2   278  PHE278      0.2264
    103  O         20.1840    4.3130   43.8120 O.2   278  PHE278     -0.2867
    104  CB        19.8590    3.6630   41.0160 C.3   278  PHE278      0.0534
    105  CG        21.2780    3.9240   40.5520 C.ar  278  PHE278     -0.0203
    106  CD1       22.1190    2.8600   40.2450 C.ar  278  PHE278     -0.0042
    107  CD2       21.7340    5.2360   40.4160 C.ar  278  PHE278     -0.0042
    108  CE1       23.4160    3.0920   39.7850 C.ar  278  PHE278     -0.0003
    109  CE2       23.0360    5.4850   39.9780 C.ar  278  PHE278     -0.0003
    110  CZ        23.8610    4.4090   39.6510 C.ar  278  PHE278     -0.0000
    111  N         28.8050    3.9720   41.8130 N.3   282  PHE282     -0.1241
    112  CA        29.8120    4.6340   40.9930 C.3   282  PHE282      0.1605
    113  C         31.2490    4.2830   41.2370 C.2   282  PHE282      0.2264
    114  O         32.1210    4.8610   40.6060 O.2   282  PHE282     -0.2867
    115  CB        29.7310    6.1420   41.1760 C.3   282  PHE282      0.0534
    116  CG        28.3940    6.6640   40.7890 C.ar  282  PHE282     -0.0203
    117  CD1       27.6040    7.3320   41.7210 C.ar  282  PHE282     -0.0042
    118  CD2       27.9390    6.5050   39.4820 C.ar  282  PHE282     -0.0042
    119  CE1       26.3580    7.8510   41.3710 C.ar  282  PHE282     -0.0003
    120  CE2       26.6970    7.0150   39.1060 C.ar  282  PHE282     -0.0003
    121  CZ        25.9240    7.6800   40.0580 C.ar  282  PHE282     -0.0000
    122  N         12.8680    5.8290   42.1470 N.3   303  GLU303     -0.1245
    123  CA        12.2700    6.3070   40.9360 C.3   303  GLU303      0.1567
    124  C         10.9660    5.5910   40.6970 C.2   303  GLU303      0.2260
    125  O         10.9430    4.4520   40.2550 O.2   303  GLU303     -0.2867
    126  CB        13.2190    6.0210   39.7640 C.3   303  GLU303      0.0388
    127  CG        14.6110    6.6130   40.0770 C.3   303  GLU303      0.1160
    128  CD        15.7070    6.2250   39.1140 C.2   303  GLU303      0.3649
    129  OE1       15.6330    6.3920   37.9280 O.co2 303  GLU303     -0.2457
    130  OE2       16.8060    5.7860   39.6670 O.co2 303  GLU303     -0.2457
@<TRIPOS>BOND
     1    36    37    1
     2    39    38    2
     3    37    38    1
     4    37    40    1
     5    27    28    2
     6    27    26    1
     7    38    44   am
     8    40    41    1
     9    46    47    2
    10    46    45    1
    11    26    29    1
    12    26    25    1
    13    29    30    1
    14    44    45    1
    15    24    23    2
    16    45    48    1
    17    30    31    1
    18    41    43    1
    19    41    42    1
    20    25    23   am
    21    31    32    1
    22    23    22    1
    23    76    77    1
    24    20    19    1
    25    78    77    1
    26    78    79    2
    27    32    33    2
    28    48    49    1
    29    77    80    1
    30    22    21    1
    31    19    18   ar
    32    19    17   ar
    33    49    50   ar
    34    49    51   ar
    35    33    35    1
    36    33    34    1
    37    80    81    1
    38    18    16   ar
    39    50    52   ar
    40    51    53   ar
    41    17    15   ar
    42    81    82    1
    43    52    53   ar
    44    83    82   ar
    45    16    14   ar
    46    82    84   ar
    47    15    14   ar
    48    14    13    1
    49     9    10    1
    50    13    10    1
    51     3     2    1
    52     3     4    2
    53     2     1    1
    54     2     5    1
    55     7     6   ar
    56    10    11    1
    57    92    90   ar
    58     6     5    1
    59     6     8   ar
    60    61    63   ar
    61    61    59   ar
    62   129   128   ar
    63    99    97    1
    64    63    62   ar
    65    11    12    2
    66    90    91   ar
    67    90    89    1
    68    88    87    2
    69    59    58    1
    70    59    60   ar
    71    98    97    1
    72    58    55    1
    73    97    94    1
    74   120   118   ar
    75   120   121   ar
    76   128   130   ar
    77   128   127    1
    78    89    86    1
    79    62    60   ar
    80    87    86    1
    81   118   116   ar
    82   110   108   ar
    83   110   109   ar
    84   126   127    1
    85   126   123    1
    86   108   106   ar
    87    54    55    1
    88   109   107   ar
    89   121   119   ar
    90    86    85    1
    91    55    56    1
    92    75    74    1
    93   106   105   ar
    94   125   124    2
    95    94    93    1
    96    94    95    1
    97   107   105   ar
    98   105   104    1
    99   114   113    2
   100   124   123    1
   101   116   115    1
   102   116   117   ar
   103   123   122    1
   104   112   115    1
   105   112   113    1
   106   112   111    1
   107   104   101    1
   108    57    56    2
   109   119   117   ar
   110    74    72   ar
   111    74    73   ar
   112    72    70   ar
   113    95    96    2
   114   101   100    1
   115   101   102    1
   116    73    71   ar
   117    70    69   ar
   118   102   103    2
   119    71    69   ar
   120    69    68    1
   121    64    65    1
   122    68    65    1
   123    65    66    1
   124    66    67    2
