@<TRIPOS>MOLECULE
tmp/1mn0A00.pdb
 127 121 0 0 0
SMALL
GASTEIGER

@<TRIPOS>ATOM
      1  N          6.8270   36.8930   18.5120 N.3    59  TYR59      -0.1241
      2  CA         7.9380   37.1680   17.5990 C.3    59  TYR59       0.1605
      3  C          8.8210   38.3790   17.8310 C.2    59  TYR59       0.2264
      4  O         10.0440   38.3480   17.5480 O.2    59  TYR59      -0.2867
      5  CB         7.4390   37.1650   16.1540 C.3    59  TYR59       0.0534
      6  CG         7.0700   35.7630   15.6860 C.ar   59  TYR59      -0.0201
      7  CD1        5.8130   35.5410   15.1280 C.ar   59  TYR59      -0.0009
      8  CD2        7.9220   34.6620   15.8100 C.ar   59  TYR59      -0.0009
      9  CE1        5.4080   34.2800   14.6860 C.ar   59  TYR59       0.0417
     10  CE2        7.5340   33.3920   15.3710 C.ar   59  TYR59       0.0417
     11  CZ         6.2680   33.1910   14.8140 C.ar   59  TYR59       0.1957
     12  OH         5.8530   31.9490   14.3730 O.3    59  TYR59      -0.2866
     13  N          8.8260   31.5710    5.6260 N.3    70  ARG70      -0.1245
     14  CA         7.9490   30.5070    5.2370 C.3    70  ARG70       0.1563
     15  C          8.5760   29.5310    4.2740 C.2    70  ARG70       0.2260
     16  O          9.2300   29.9260    3.2730 O.2    70  ARG70      -0.2867
     17  CB         6.6760   30.9990    4.5760 C.3    70  ARG70       0.0307
     18  CG         6.1210   32.2000    5.2880 C.3    70  ARG70       0.0489
     19  CD         4.8400   32.7310    4.6220 C.3    70  ARG70       0.2205
     20  NE         3.9290   33.2360    5.6590 N.pl3  70  ARG70      -0.0865
     21  CZ         4.0320   34.4350    6.2360 C.cat  70  ARG70       0.5346
     22  NH1        4.9700   35.3510    5.9070 N.pl3  70  ARG70       0.1354
     23  NH2        3.1440   34.7080    7.1750 N.pl3  70  ARG70       0.1354
     24  N          1.2670   27.0910    9.7490 N.3    89  GLU89      -0.1245
     25  CA         0.5480   28.1680    9.1030 C.3    89  GLU89       0.1567
     26  C          0.0410   27.5090    7.8630 C.2    89  GLU89       0.2260
     27  O          0.6530   27.5430    6.7910 O.2    89  GLU89      -0.2867
     28  CB         1.4520   29.3260    8.7790 C.3    89  GLU89       0.0388
     29  CG         0.6380   30.4730    8.2030 C.3    89  GLU89       0.1160
     30  CD         1.5400   31.5050    7.5850 C.2    89  GLU89       0.3649
     31  OE1        2.2910   31.2830    6.6640 O.co2  89  GLU89      -0.2457
     32  OE2        1.4510   32.6700    8.1710 O.co2  89  GLU89      -0.2457
     33  N          6.3490   28.1940    9.1270 N.3    94  LEU94      -0.1231
     34  CA         6.6670   29.5880    9.3360 C.3    94  LEU94       0.1693
     35  C          7.5840   29.7460   10.5430 C.2    94  LEU94       0.2592
     36  O          7.2470   29.3220   11.6300 O.2    94  LEU94      -0.2718
     37  CB         5.3720   30.3960    9.6010 C.3    94  LEU94       0.0284
     38  CG         5.6350   31.8030   10.1820 C.3    94  LEU94       0.0019
     39  CD1        6.3390   32.6900    9.1600 C.3    94  LEU94       0.0001
     40  CD2        4.3480   32.4860   10.6330 C.3    94  LEU94       0.0001
     41  N          8.7580   30.3300   10.3700 N.am   95  HIS95      -0.1976
     42  CA         9.6740   30.5480   11.4940 C.3    95  HIS95       0.1656
     43  C         10.0060   29.3350   12.3750 C.2    95  HIS95       0.2291
     44  O          9.9960   29.4000   13.6150 O.2    95  HIS95      -0.2864
     45  CB         9.2000   31.7040   12.3970 C.3    95  HIS95       0.0771
     46  CG         9.1030   33.0250   11.7010 C.ar   95  HIS95       0.0820
     47  ND1       10.0000   33.3870   10.6890 N.ar   95  HIS95      -0.2267
     48  CD2        8.2120   34.0280   11.9010 C.ar   95  HIS95       0.1154
     49  CE1        9.6410   34.5740   10.3020 C.ar   95  HIS95       0.1986
     50  NE2        8.5720   34.9980   11.0110 N.ar   95  HIS95      -0.2212
     51  N         14.1910   39.1800   14.8960 N.3   169  HIS169     -0.1241
     52  CA        12.9090   39.7870   14.5800 C.3   169  HIS169      0.1621
     53  C         12.5670   41.1100   15.2750 C.2   169  HIS169      0.2264
     54  O         11.3970   41.4040   15.5380 O.2   169  HIS169     -0.2867
     55  CB        11.8050   38.7130   14.7170 C.3   169  HIS169      0.0745
     56  CG        10.6090   38.8680   13.8060 C.ar  169  HIS169      0.0817
     57  ND1        9.6680   39.9030   13.9700 N.ar  169  HIS169     -0.2268
     58  CD2       10.2070   38.0950   12.7540 C.ar  169  HIS169      0.1154
     59  CE1        8.7400   39.7260   13.0380 C.ar  169  HIS169      0.1986
     60  NE2        9.0310   38.6580   12.2920 N.ar  169  HIS169     -0.2212
     61  N         11.5090   44.8540   15.8400 N.3   171  TYR171     -0.1241
     62  CA        10.7240   45.8140   15.0730 C.3   171  TYR171      0.1605
     63  C         11.1120   47.2300   15.5330 C.2   171  TYR171      0.2264
     64  O         11.0730   47.5630   16.7150 O.2   171  TYR171     -0.2867
     65  CB         9.2310   45.7450   15.4070 C.3   171  TYR171      0.0534
     66  CG         8.4050   44.5970   14.8580 C.ar  171  TYR171     -0.0201
     67  CD1        8.2500   43.3950   15.5570 C.ar  171  TYR171     -0.0009
     68  CD2        7.6810   44.7820   13.6760 C.ar  171  TYR171     -0.0009
     69  CE1        7.4160   42.3890   15.0630 C.ar  171  TYR171      0.0417
     70  CE2        6.8570   43.7770   13.1770 C.ar  171  TYR171      0.0417
     71  CZ         6.7280   42.5680   13.8620 C.ar  171  TYR171      0.1957
     72  OH         5.8980   41.5640   13.3470 O.3   171  TYR171     -0.2866
     73  N          1.4450   34.0540    1.1390 N.3   202  GLU202     -0.1245
     74  CA         2.7610   34.5940    1.3500 C.3   202  GLU202      0.1567
     75  C          3.9210   33.7240    0.9490 C.2   202  GLU202      0.2260
     76  O          5.0450   34.0370    1.3030 O.2   202  GLU202     -0.2867
     77  CB         2.9130   35.3540    2.6910 C.3   202  GLU202      0.0388
     78  CG         1.8390   36.4540    2.8190 C.3   202  GLU202      0.1160
     79  CD         1.6250   37.0840    4.1830 C.2   202  GLU202      0.3649
     80  OE1        0.8290   36.6870    5.0240 O.co2 202  GLU202     -0.2457
     81  OE2        2.3460   38.1550    4.3500 O.co2 202  GLU202     -0.2457
     82  N          6.2340   43.1760    2.9800 N.3   242  ASP242     -0.1239
     83  CA         6.4010   41.8820    3.6310 C.3   242  ASP242      0.1674
     84  C          7.1620   41.0700    2.6500 C.2   242  ASP242      0.2266
     85  O          6.6480   40.0680    2.1700 O.2   242  ASP242     -0.2867
     86  CB         5.0250   41.2380    3.9360 C.3   242  ASP242      0.1410
     87  CG         5.1450   40.1490    4.9710 C.2   242  ASP242      0.3668
     88  OD1        6.2110   39.7480    5.3980 O.co2 242  ASP242     -0.2456
     89  OD2        3.9930   39.6920    5.3640 O.co2 242  ASP242     -0.2456
     90  N         14.8050   40.9270    4.8330 N.3   276  VAL276     -0.1245
     91  CA        13.3760   40.7560    4.7670 C.3   276  VAL276      0.1561
     92  C         12.6920   41.8340    5.6050 C.2   276  VAL276      0.2260
     93  O         12.8910   41.9680    6.8260 O.2   276  VAL276     -0.2867
     94  CB        13.0350   39.3490    5.2310 C.3   276  VAL276      0.0252
     95  CG1       11.5130   39.2180    5.2260 C.3   276  VAL276      0.0019
     96  CG2       13.7260   38.3200    4.3100 C.3   276  VAL276      0.0019
     97  N          9.2890   43.6940    6.9030 N.3   278  PHE278     -0.1241
     98  CA         7.8850   43.5780    7.2730 C.3   278  PHE278      0.1605
     99  C          7.4770   44.8510    8.0100 C.2   278  PHE278      0.2264
    100  O          8.1910   45.2830    8.9160 O.2   278  PHE278     -0.2867
    101  CB         7.6120   42.2860    8.0710 C.3   278  PHE278      0.0534
    102  CG         6.1980   42.1650    8.5830 C.ar  278  PHE278     -0.0203
    103  CD1        5.1080   42.1950    7.7150 C.ar  278  PHE278     -0.0042
    104  CD2        5.9700   42.0340    9.9530 C.ar  278  PHE278     -0.0042
    105  CE1        3.8020   42.0710    8.1840 C.ar  278  PHE278     -0.0003
    106  CE2        4.6740   41.9060   10.4490 C.ar  278  PHE278     -0.0003
    107  CZ         3.5990   41.9300    9.5590 C.ar  278  PHE278     -0.0000
    108  N         -0.8250   44.8020   10.3410 N.3   282  PHE282     -0.1241
    109  CA        -1.8450   44.2050   11.2160 C.3   282  PHE282      0.1605
    110  C         -3.2580   44.7600   11.1620 C.2   282  PHE282      0.2264
    111  O         -4.1840   44.2490   11.8360 O.2   282  PHE282     -0.2867
    112  CB        -1.3980   44.0880   12.6810 C.3   282  PHE282      0.0534
    113  CG        -0.0790   43.3520   12.8400 C.ar  282  PHE282     -0.0203
    114  CD1        1.0470   43.9880   13.3680 C.ar  282  PHE282     -0.0042
    115  CD2        0.0380   42.0070   12.4720 C.ar  282  PHE282     -0.0042
    116  CE1        2.2510   43.2980   13.5410 C.ar  282  PHE282     -0.0003
    117  CE2        1.2360   41.3020   12.6130 C.ar  282  PHE282     -0.0003
    118  CZ         2.3410   41.9600   13.1550 C.ar  282  PHE282     -0.0000
    119  N         14.9800   41.8760    8.7680 N.3   303  GLU303     -0.1245
    120  CA        15.4660   40.5350    9.0400 C.3   303  GLU303      0.1567
    121  C         16.5710   40.1430    8.1010 C.2   303  GLU303      0.2260
    122  O         16.3770   39.8800    6.9360 O.2   303  GLU303     -0.2867
    123  CB        14.3420   39.4970    8.9760 C.3   303  GLU303      0.0388
    124  CG        13.3190   39.7620   10.0840 C.3   303  GLU303      0.1160
    125  CD        11.9640   39.1970    9.7380 C.2   303  GLU303      0.3649
    126  OE1       11.7640   38.0070    9.6150 O.co2 303  GLU303     -0.2457
    127  OE2       11.0260   40.0920    9.5660 O.co2 303  GLU303     -0.2457
@<TRIPOS>BOND
     1    75    76    2
     2    75    74    1
     3    73    74    1
     4    74    77    1
     5    85    84    2
     6    84    83    1
     7    77    78    1
     8    78    79    1
     9    82    83    1
    10    16    15    2
    11    83    86    1
    12    86    87    1
    13    79    81   ar
    14    79    80   ar
    15    15    14    1
    16    96    94    1
    17    17    14    1
    18    17    18    1
    19    19    18    1
    20    19    20    1
    21    91    90    1
    22    91    94    1
    23    91    92    1
    24    87    89   ar
    25    87    88   ar
    26    95    94    1
    27    14    13    1
    28    92    93    2
    29    20    21    2
    30    22    21    1
    31    21    23    1
    32    31    30   ar
    33    27    26    2
    34    97    98    1
    35   122   121    2
    36    98    99    1
    37    98   101    1
    38    30    32   ar
    39    30    29    1
    40   103   105   ar
    41   103   102   ar
    42    26    25    1
    43    99   100    2
    44   101   102    1
    45   121   120    1
    46   105   107   ar
    47    29    28    1
    48   102   104   ar
    49   119   120    1
    50    28    25    1
    51   123   120    1
    52   123   124    1
    53    25    24    1
    54    33    34    1
    55    39    38    1
    56    34    37    1
    57    34    35    1
    58   107   106   ar
    59   127   125   ar
    60    37    38    1
    61   126   125   ar
    62   125   124    1
    63   104   106   ar
    64    38    40    1
    65    49    47   ar
    66    49    50   ar
    67   108   109    1
    68    41    35   am
    69    41    42    1
    70    35    36    2
    71    47    46   ar
    72    50    48   ar
    73   110   109    1
    74   110   111    2
    75   109   112    1
    76    42    43    1
    77    42    45    1
    78    46    48   ar
    79    46    45    1
    80    60    58   ar
    81    60    59   ar
    82    43    44    2
    83   115   117   ar
    84   115   113   ar
    85   117   118   ar
    86   112   113    1
    87    58    56   ar
    88   113   114   ar
    89    59    57   ar
    90   118   116   ar
    91    70    68   ar
    92    70    71   ar
    93    72    71    1
    94   114   116   ar
    95    68    66   ar
    96    56    57   ar
    97    56    55    1
    98    71    69   ar
    99    12    11    1
   100    52    55    1
   101    52    51    1
   102    52    53    1
   103     9    11   ar
   104     9     7   ar
   105    11    10   ar
   106    66    65    1
   107    66    67   ar
   108    69    67   ar
   109    62    65    1
   110    62    63    1
   111    62    61    1
   112     7     6   ar
   113    53    54    2
   114    10     8   ar
   115    63    64    2
   116     6     8   ar
   117     6     5    1
   118     5     2    1
   119     4     3    2
   120     2     3    1
   121     2     1    1
