@<TRIPOS>MOLECULE
tmp/1mn7B00.pdb
 136 128 0 0 0
SMALL
GASTEIGER

@<TRIPOS>ATOM
      1  N         17.2290   28.5130  -20.4140 N.3    11  LYS11      -0.1245
      2  CA        15.8660   28.0560  -20.6250 C.3    11  LYS11       0.1561
      3  C         15.3070   27.4260  -19.3560 C.2    11  LYS11       0.2260
      4  O         16.0470   27.1870  -18.3960 O.2    11  LYS11      -0.2867
      5  CB        15.8510   27.0360  -21.7540 C.3    11  LYS11       0.0271
      6  CG        16.5130   27.5040  -23.0370 C.3    11  LYS11       0.0035
      7  CD        15.7210   28.5920  -23.7180 C.3    11  LYS11       0.0206
      8  CE        15.5940   28.3170  -25.2180 C.3    11  LYS11       0.1093
      9  NZ        16.9060   28.2050  -25.9210 N.3    11  LYS11      -0.1314
     10  N         10.6750   37.4240  -28.5430 N.3    50  HIS50      -0.1226
     11  CA        12.0280   36.8700  -28.6180 C.3    50  HIS50       0.1752
     12  C         12.1740   35.9930  -29.8720 C.2    50  HIS50       0.2596
     13  O         13.1030   36.1620  -30.6490 O.2    50  HIS50      -0.2718
     14  CB        12.3230   36.0250  -27.3660 C.3    50  HIS50       0.0759
     15  CG        13.7360   35.5200  -27.2840 C.ar   50  HIS50       0.0818
     16  ND1       14.7990   36.3260  -26.9340 N.ar   50  HIS50      -0.2268
     17  CD2       14.2590   34.2930  -27.5240 C.ar   50  HIS50       0.1154
     18  CE1       15.9140   35.6180  -26.9610 C.ar   50  HIS50       0.1986
     19  NE2       15.6140   34.3810  -27.3170 N.ar   50  HIS50      -0.2212
     20  N         11.2280   35.0760  -30.0700 N.am   51  TYR51      -0.1976
     21  CA        11.2560   34.1540  -31.2040 C.3    51  TYR51       0.1639
     22  C         10.2670   34.4660  -32.3230 C.2    51  TYR51       0.2290
     23  O          9.7820   33.5480  -32.9970 O.2    51  TYR51      -0.2864
     24  CB        10.9780   32.7390  -30.7050 C.3    51  TYR51       0.0560
     25  CG        12.0830   32.1290  -29.8890 C.ar   51  TYR51      -0.0198
     26  CD1       13.2860   31.7550  -30.4810 C.ar   51  TYR51      -0.0009
     27  CD2       11.8980   31.8590  -28.5360 C.ar   51  TYR51      -0.0009
     28  CE1       14.2790   31.1170  -29.7450 C.ar   51  TYR51       0.0417
     29  CE2       12.8750   31.2240  -27.7920 C.ar   51  TYR51       0.0417
     30  CZ        14.0600   30.8550  -28.3980 C.ar   51  TYR51       0.1957
     31  OH        15.0090   30.2150  -27.6570 O.3    51  TYR51      -0.2866
     32  N         10.1690   33.0050  -35.7980 N.3    54  HIS54      -0.1241
     33  CA         9.7380   31.6150  -35.9310 C.3    54  HIS54       0.1621
     34  C          8.2230   31.4600  -35.8160 C.2    54  HIS54       0.2264
     35  O          7.7080   30.3460  -35.8260 O.2    54  HIS54      -0.2867
     36  CB        10.4020   30.7650  -34.8440 C.3    54  HIS54       0.0745
     37  CG        11.8840   30.6370  -34.9950 C.ar   54  HIS54       0.0817
     38  ND1       12.7240   30.4260  -33.9220 N.ar   54  HIS54      -0.2268
     39  CD2       12.6710   30.6330  -36.0970 C.ar   54  HIS54       0.1154
     40  CE1       13.9640   30.2950  -34.3590 C.ar   54  HIS54       0.1986
     41  NE2       13.9590   30.4140  -35.6750 N.ar   54  HIS54      -0.2212
     42  N          6.5050   28.8560  -37.8660 N.3    57  ARG57      -0.1245
     43  CA         6.9640   27.4850  -37.7260 C.3    57  ARG57       0.1563
     44  C          5.9480   26.6540  -36.9380 C.2    57  ARG57       0.2260
     45  O          5.2820   27.1650  -36.0310 O.2    57  ARG57      -0.2867
     46  CB         8.3270   27.4610  -37.0270 C.3    57  ARG57       0.0307
     47  CG         9.4490   28.1150  -37.8350 C.3    57  ARG57       0.0489
     48  CD         9.7710   27.3030  -39.0820 C.3    57  ARG57       0.2205
     49  NE        10.0870   25.9160  -38.7450 N.pl3  57  ARG57      -0.0865
     50  CZ        10.1600   24.9220  -39.6260 C.cat  57  ARG57       0.5346
     51  NH1        9.9410   25.1510  -40.9160 N.pl3  57  ARG57       0.1354
     52  NH2       10.4420   23.6930  -39.2140 N.pl3  57  ARG57       0.1354
     53  N          6.4150   24.3110  -34.7350 N.3    59  TRP59      -0.1241
     54  CA         6.8150   24.0810  -33.3480 C.3    59  TRP59       0.1605
     55  C          6.8650   25.3760  -32.5170 C.2    59  TRP59       0.2264
     56  O          7.1230   25.3410  -31.3170 O.2    59  TRP59      -0.2867
     57  CB         8.1840   23.3830  -33.3010 C.3    59  TRP59       0.0550
     58  CG         9.1280   23.8250  -34.3710 C.ar   59  TRP59       0.0003
     59  CD1        9.3960   23.1800  -35.5470 C.ar   59  TRP59       0.0946
     60  CD2        9.8880   25.0360  -34.3990 C.ar   59  TRP59       0.0152
     61  NE1       10.2700   23.9150  -36.3030 N.ar   59  TRP59      -0.2442
     62  CE2       10.5880   25.0600  -35.6240 C.ar   59  TRP59       0.0810
     63  CE3       10.0440   26.1060  -33.5100 C.ar   59  TRP59       0.0012
     64  CZ2       11.4290   26.1130  -35.9820 C.ar   59  TRP59       0.0191
     65  CZ3       10.8780   27.1500  -33.8660 C.ar   59  TRP59       0.0001
     66  CH2       11.5620   27.1460  -35.0950 C.ar   59  TRP59       0.0015
     67  N          7.1460   25.8300  -28.3720 N.3    63  LEU63      -0.1245
     68  CA         8.2710   26.5730  -27.8150 C.3    63  LEU63       0.1561
     69  C          7.8210   27.6530  -26.8340 C.2    63  LEU63       0.2260
     70  O          8.3330   27.7380  -25.7080 O.2    63  LEU63      -0.2867
     71  CB         9.0730   27.2090  -28.9550 C.3    63  LEU63       0.0270
     72  CG        10.2930   28.0670  -28.6070 C.3    63  LEU63       0.0019
     73  CD1       11.3400   27.2210  -27.8900 C.3    63  LEU63       0.0001
     74  CD2       10.8700   28.6760  -29.8900 C.3    63  LEU63       0.0001
     75  N         27.8490   31.7950  -29.1620 N.3    87  ARG87      -0.1245
     76  CA        27.1680   30.7750  -29.9580 C.3    87  ARG87       0.1563
     77  C         28.0260   29.5220  -30.0670 C.2    87  ARG87       0.2260
     78  O         27.5260   28.4030  -29.9780 O.2    87  ARG87      -0.2867
     79  CB        26.8510   31.2820  -31.3740 C.3    87  ARG87       0.0307
     80  CG        25.6510   32.2430  -31.5160 C.3    87  ARG87       0.0489
     81  CD        24.4050   31.9620  -30.6540 C.3    87  ARG87       0.2205
     82  NE        23.8460   30.6580  -30.8130 N.pl3  87  ARG87      -0.0865
     83  CZ        22.6010   30.2180  -30.9620 C.cat  87  ARG87       0.5346
     84  NH1       21.4910   30.9490  -31.0230 N.pl3  87  ARG87       0.1354
     85  NH2       22.5140   28.9060  -30.9950 N.pl3  87  ARG87       0.1354
     86  N         22.1800   24.0880  -33.1110 N.3    93  THR93      -0.1218
     87  CA        20.7710   23.8340  -32.8230 C.3    93  THR93       0.1862
     88  C         20.5190   22.4790  -32.1730 C.2    93  THR93       0.2287
     89  O         19.9250   22.3860  -31.1010 O.2    93  THR93      -0.2866
     90  CB        19.9420   23.9460  -34.1140 C.3    93  THR93       0.1770
     91  OG1       19.9850   25.3030  -34.5710 O.3    93  THR93      -0.2211
     92  CG2       18.4850   23.5250  -33.8740 C.3    93  THR93       0.0375
     93  N         25.4220   22.6680  -24.9580 N.3   104  ARG104     -0.1245
     94  CA        24.4400   21.6710  -25.3950 C.3   104  ARG104      0.1563
     95  C         25.1130   20.3350  -25.6640 C.2   104  ARG104      0.2260
     96  O         24.5090   19.2770  -25.4750 O.2   104  ARG104     -0.2867
     97  CB        23.7190   22.1500  -26.6500 C.3   104  ARG104      0.0307
     98  CG        22.8320   23.3610  -26.4060 C.3   104  ARG104      0.0489
     99  CD        22.2740   23.9010  -27.7030 C.3   104  ARG104      0.2205
    100  NE        21.3940   25.0470  -27.4890 N.pl3 104  ARG104     -0.0865
    101  CZ        20.9720   25.8470  -28.4590 C.cat 104  ARG104      0.5346
    102  NH1       21.3490   25.6250  -29.7080 N.pl3 104  ARG104      0.1354
    103  NH2       20.1900   26.8770  -28.1760 N.pl3 104  ARG104      0.1354
    104  N         16.3130   18.9420  -29.0500 N.3   111  VAL111     -0.1231
    105  CA        16.2040   20.3110  -29.5550 C.3   111  VAL111      0.1692
    106  C         15.2150   21.1250  -28.7290 C.2   111  VAL111      0.2592
    107  O         15.3490   22.3430  -28.6040 O.2   111  VAL111     -0.2718
    108  CB        15.7250   20.3380  -31.0250 C.3   111  VAL111      0.0266
    109  CG1       15.9990   21.7000  -31.6330 C.3   111  VAL111      0.0020
    110  CG2       16.4150   19.2440  -31.8260 C.3   111  VAL111      0.0020
    111  N         14.2160   20.4460  -28.1730 N.am  112  GLY112     -0.1957
    112  CA        13.2150   21.1190  -27.3580 C.3   112  GLY112      0.1869
    113  C         13.7110   21.4380  -25.9590 C.2   112  GLY112      0.2309
    114  O         13.1170   22.2560  -25.2510 O.2   112  GLY112     -0.2863
    115  N         16.9940   22.5540  -25.1880 N.3   114  SER114     -0.1217
    116  CA        18.2970   23.0640  -25.5860 C.3   114  SER114      0.1889
    117  C         19.0910   23.7920  -24.5020 C.2   114  SER114      0.2288
    118  O         20.1490   24.3510  -24.7760 O.2   114  SER114     -0.2866
    119  CB        18.1410   23.9410  -26.8340 C.3   114  SER114      0.2089
    120  OG        17.0150   24.7940  -26.7310 O.3   114  SER114     -0.2183
    121  N         19.5530   29.6950  -24.5870 N.3   117  GLY117     -0.1210
    122  CA        19.2700   30.3930  -25.8310 C.3   117  GLY117      0.1956
    123  C         20.2090   31.5820  -25.9340 C.2   117  GLY117      0.2612
    124  O         20.6620   32.0850  -24.9120 O.2   117  GLY117     -0.2717
    125  N         20.5110   32.0250  -27.1500 N.am  118  GLY118     -0.1956
    126  CA        21.4130   33.1580  -27.3240 C.3   118  GLY118      0.1869
    127  C         21.3300   33.8300  -28.6890 C.2   118  GLY118      0.2309
    128  O         21.0460   33.1770  -29.6940 O.2   118  GLY118     -0.2863
    129  N         21.9590   35.3130  -32.2990 N.3   120  ASP120     -0.1239
    130  CA        22.7500   34.7870  -33.4080 C.3   120  ASP120      0.1674
    131  C         23.4320   35.8770  -34.2270 C.2   120  ASP120      0.2266
    132  O         24.1260   35.5820  -35.2010 O.2   120  ASP120     -0.2867
    133  CB        21.8780   33.9200  -34.3270 C.3   120  ASP120      0.1410
    134  CG        20.5680   34.5810  -34.6820 C.2   120  ASP120      0.3668
    135  OD1       20.5560   35.8080  -34.9130 O.co2 120  ASP120     -0.2456
    136  OD2       19.5430   33.8740  -34.7400 O.co2 120  ASP120     -0.2456
@<TRIPOS>BOND
     1    51    50    1
     2    50    52    1
     3    50    49    2
     4    48    49    1
     5    48    47    1
     6    42    43    1
     7    47    46    1
     8    43    46    1
     9    43    44    1
    10    44    45    2
    11    61    62   ar
    12    61    59   ar
    13    39    41   ar
    14    39    37   ar
    15    64    62   ar
    16    64    66   ar
    17    33    34    1
    18    33    32    1
    19    33    36    1
    20    35    34    2
    21    41    40   ar
    22    62    60   ar
    23    59    58   ar
    24   132   131    2
    25    66    65   ar
    26    37    36    1
    27    37    38   ar
    28   135   134   ar
    29   136   134   ar
    30    53    54    1
    31   134   133    1
    32    91    90    1
    33    60    58   ar
    34    60    63   ar
    35    58    57    1
    36    40    38   ar
    37   133   130    1
    38   131   130    1
    39    90    92    1
    40    90    87    1
    41    65    63   ar
    42   130   129    1
    43    54    57    1
    44    54    55    1
    45    86    87    1
    46    23    22    2
    47    87    88    1
    48    55    56    2
    49    22    21    1
    50    88    89    2
    51   110   108    1
    52   109   108    1
    53    80    79    1
    54    80    81    1
    55    79    76    1
    56    21    24    1
    57    21    20    1
    58   108   105    1
    59    84    83    1
    60    85    83    1
    61    83    82    2
    62    82    81    1
    63    24    25    1
    64    13    12    2
    65    26    25   ar
    66    26    28   ar
    67    20    12   am
    68    77    78    2
    69    77    76    1
    70    76    75    1
    71    74    72    1
    72    25    27   ar
    73    12    11    1
    74    28    30   ar
    75   102   101    1
    76   128   127    2
    77   105   104    1
    78   105   106    1
    79    71    72    1
    80    71    68    1
    81   106   107    2
    82   106   111   am
    83   127   126    1
    84    11    10    1
    85    11    14    1
    86    72    73    1
    87    27    29   ar
    88   101   103    1
    89   101   100    2
    90    30    29   ar
    91    30    31    1
    92    67    68    1
    93   111   112    1
    94    68    69    1
    95    99   100    1
    96    99    98    1
    97    17    19   ar
    98    17    15   ar
    99    14    15    1
   100   112   113    1
   101   126   125    1
   102    19    18   ar
   103    15    16   ar
   104   125   123   am
   105    18    16   ar
   106   119   120    1
   107   119   116    1
   108    69    70    2
   109    97    98    1
   110    97    94    1
   111   113   114    2
   112   123   122    1
   113   123   124    2
   114     9     8    1
   115   122   121    1
   116    95    96    2
   117    95    94    1
   118   116   115    1
   119   116   117    1
   120    94    93    1
   121     8     7    1
   122   118   117    2
   123     7     6    1
   124     6     5    1
   125     5     2    1
   126     2     1    1
   127     2     3    1
   128     3     4    2
