@<TRIPOS>MOLECULE
tmp/1mn9A00.pdb
 142 133 0 0 0
SMALL
GASTEIGER

@<TRIPOS>ATOM
      1  N         71.5130   32.4460   10.6220 N.3    11  LYS11      -0.1245
      2  CA        72.0570   33.6840   10.1030 C.3    11  LYS11       0.1561
      3  C         72.1090   34.7590   11.1850 C.2    11  LYS11       0.2260
      4  O         71.5030   34.6270   12.2430 O.2    11  LYS11      -0.2867
      5  CB        71.2230   34.1270    8.9050 C.3    11  LYS11       0.0271
      6  CG        71.1350   33.0300    7.8470 C.3    11  LYS11       0.0035
      7  CD        70.3480   33.4600    6.6270 C.3    11  LYS11       0.0206
      8  CE        70.2390   32.3210    5.6270 C.3    11  LYS11       0.1093
      9  NZ        69.5510   32.7660    4.3920 N.3    11  LYS11      -0.1314
     10  N         80.1150   29.9150   -0.2510 N.3    50  HIS50      -0.1226
     11  CA        78.8730   29.3110    0.1910 C.3    50  HIS50       0.1752
     12  C         77.7490   29.6060   -0.7860 C.2    50  HIS50       0.2596
     13  O         77.1320   28.6930   -1.3220 O.2    50  HIS50      -0.2718
     14  CB        78.5020   29.8340    1.5800 C.3    50  HIS50       0.0759
     15  CG        77.2710   29.2050    2.1520 C.ar   50  HIS50       0.0818
     16  ND1       77.1930   27.8620    2.4540 N.ar   50  HIS50      -0.2268
     17  CD2       76.0550   29.7260    2.4380 C.ar   50  HIS50       0.1154
     18  CE1       75.9810   27.5820    2.8960 C.ar   50  HIS50       0.1986
     19  NE2       75.2710   28.6960    2.8950 N.ar   50  HIS50      -0.2212
     20  N         77.4850   30.8840   -1.0210 N.am   51  TYR51      -0.1976
     21  CA        76.4170   31.2740   -1.9320 C.3    51  TYR51       0.1639
     22  C         76.8940   31.4140   -3.3740 C.2    51  TYR51       0.2290
     23  O         76.3740   32.2210   -4.1420 O.2    51  TYR51      -0.2864
     24  CB        75.7830   32.5850   -1.4590 C.3    51  TYR51       0.0560
     25  CG        74.9740   32.4420   -0.1910 C.ar   51  TYR51      -0.0198
     26  CD1       73.9610   31.4900   -0.0980 C.ar   51  TYR51      -0.0009
     27  CD2       75.2080   33.2620    0.9090 C.ar   51  TYR51      -0.0009
     28  CE1       73.2010   31.3570    1.0560 C.ar   51  TYR51       0.0417
     29  CE2       74.4490   33.1400    2.0740 C.ar   51  TYR51       0.0417
     30  CZ        73.4470   32.1850    2.1380 C.ar   51  TYR51       0.1957
     31  OH        72.6780   32.0630    3.2730 O.3    51  TYR51      -0.2866
     32  N         76.3740   29.7610   -5.9980 N.3    53  GLU53      -0.1231
     33  CA        75.3410   29.6140   -7.0130 C.3    53  GLU53       0.1699
     34  C         74.5310   30.8770   -7.3220 C.2    53  GLU53       0.2592
     35  O         73.7620   30.8930   -8.2770 O.2    53  GLU53      -0.2718
     36  CB        74.3780   28.4940   -6.6120 C.3    53  GLU53       0.0402
     37  CG        73.6470   28.7640   -5.3090 C.3    53  GLU53       0.1161
     38  CD        72.4860   27.8160   -5.0770 C.2    53  GLU53       0.3649
     39  OE1       71.6160   27.7180   -5.9690 O.co2  53  GLU53      -0.2457
     40  OE2       72.4410   27.1790   -4.0020 O.co2  53  GLU53      -0.2457
     41  N         74.6960   31.9350   -6.5360 N.am   54  HIS54      -0.1976
     42  CA        73.9220   33.1600   -6.7570 C.3    54  HIS54       0.1656
     43  C         74.7740   34.3710   -7.1180 C.2    54  HIS54       0.2291
     44  O         74.2700   35.4940   -7.1290 O.2    54  HIS54      -0.2864
     45  CB        73.1020   33.5030   -5.5010 C.3    54  HIS54       0.0771
     46  CG        72.2060   32.3960   -5.0330 C.ar   54  HIS54       0.0820
     47  ND1       71.0660   32.0190   -5.7110 N.ar   54  HIS54      -0.2267
     48  CD2       72.2980   31.5680   -3.9660 C.ar   54  HIS54       0.1154
     49  CE1       70.4970   31.0060   -5.0840 C.ar   54  HIS54       0.1986
     50  NE2       71.2250   30.7120   -4.0220 N.ar   54  HIS54      -0.2212
     51  N         70.7670   39.9180   -5.9010 N.3    59  PHE59      -0.1241
     52  CA        70.7640   40.0270   -4.4440 C.3    59  PHE59       0.1605
     53  C         72.0390   39.4800   -3.8330 C.2    59  PHE59       0.2264
     54  O         72.2880   39.6560   -2.6450 O.2    59  PHE59      -0.2867
     55  CB        69.5490   39.2970   -3.8560 C.3    59  PHE59       0.0534
     56  CG        69.5210   37.8240   -4.1510 C.ar   59  PHE59      -0.0203
     57  CD1       70.3860   36.9530   -3.5030 C.ar   59  PHE59      -0.0042
     58  CD2       68.6300   37.3080   -5.0850 C.ar   59  PHE59      -0.0042
     59  CE1       70.3670   35.5890   -3.7800 C.ar   59  PHE59      -0.0003
     60  CE2       68.6030   35.9440   -5.3700 C.ar   59  PHE59      -0.0003
     61  CZ        69.4740   35.0830   -4.7140 C.ar   59  PHE59      -0.0000
     62  N         73.4270   39.9150    0.1170 N.3    63  LEU63      -0.1245
     63  CA        73.4410   38.6220    0.7790 C.3    63  LEU63       0.1561
     64  C         74.7850   38.4300    1.4590 C.2    63  LEU63       0.2260
     65  O         74.8670   38.4180    2.6930 O.2    63  LEU63      -0.2867
     66  CB        73.2000   37.4990   -0.2290 C.3    63  LEU63       0.0270
     67  CG        73.1940   36.0750    0.3250 C.3    63  LEU63       0.0019
     68  CD1       72.2240   35.9580    1.4720 C.3    63  LEU63       0.0001
     69  CD2       72.8210   35.1180   -0.7780 C.3    63  LEU63       0.0001
     70  N         64.7790   21.0380    5.6650 N.3    87  ARG87      -0.1245
     71  CA        64.2580   22.0860    4.8190 C.3    87  ARG87       0.1563
     72  C         62.7910   22.2660    5.1040 C.2    87  ARG87       0.2260
     73  O         62.3180   23.3890    5.2340 O.2    87  ARG87      -0.2867
     74  CB        64.4600   21.7320    3.3640 C.3    87  ARG87       0.0307
     75  CG        65.9050   21.6790    3.0220 C.3    87  ARG87       0.0489
     76  CD        66.1910   22.5720    1.8840 C.3    87  ARG87       0.2205
     77  NE        66.5280   23.9180    2.1070 N.pl3  87  ARG87      -0.0865
     78  CZ        66.5460   24.9710    1.3010 C.cat  87  ARG87       0.5346
     79  NH1       66.1940   25.0160    0.0170 N.pl3  87  ARG87       0.1354
     80  NH2       67.0720   26.0300    1.8660 N.pl3  87  ARG87       0.1354
     81  N         61.5610   29.9600    1.0540 N.3    93  THR93      -0.1218
     82  CA        62.4190   31.1490    1.0420 C.3    93  THR93       0.1862
     83  C         61.7680   32.4080    1.6250 C.2    93  THR93       0.2287
     84  O         62.4170   33.1800    2.3370 O.2    93  THR93      -0.2866
     85  CB        62.9370   31.4410   -0.3840 C.3    93  THR93       0.1770
     86  OG1       63.7430   30.3440   -0.8220 O.3    93  THR93      -0.2211
     87  CG2       63.7890   32.7000   -0.4050 C.3    93  THR93       0.0375
     88  N         60.7470   29.5390    9.6550 N.3   104  ARG104     -0.1245
     89  CA        60.5160   30.8430    9.0460 C.3   104  ARG104      0.1563
     90  C         59.0700   31.2670    9.2300 C.2   104  ARG104      0.2260
     91  O         58.7830   32.4470    9.4620 O.2   104  ARG104     -0.2867
     92  CB        60.8790   30.8220    7.5620 C.3   104  ARG104      0.0307
     93  CG        62.3870   30.8160    7.3320 C.3   104  ARG104      0.0489
     94  CD        62.7340   30.6440    5.8840 C.3   104  ARG104      0.2205
     95  NE        64.1710   30.5200    5.6890 N.pl3 104  ARG104     -0.0865
     96  CZ        64.7220   29.9550    4.6190 C.cat 104  ARG104      0.5346
     97  NH1       63.9540   29.4640    3.6490 N.pl3 104  ARG104      0.1354
     98  NH2       66.0420   29.8690    4.5210 N.pl3 104  ARG104      0.1354
     99  N         62.2720   38.2220    3.2860 N.3   111  VAL111     -0.1231
    100  CA        63.1040   37.2640    2.5650 C.3   111  VAL111      0.1692
    101  C         64.5960   37.4940    2.8350 C.2   111  VAL111      0.2592
    102  O         65.3940   36.5550    2.8520 O.2   111  VAL111     -0.2718
    103  CB        62.8500   37.3560    1.0460 C.3   111  VAL111      0.0266
    104  CG1       63.6470   36.2940    0.3140 C.3   111  VAL111      0.0020
    105  CG2       61.3710   37.1820    0.7590 C.3   111  VAL111      0.0020
    106  N         64.9660   38.7490    3.0490 N.am  112  GLY112     -0.1957
    107  CA        66.3540   39.0720    3.3150 C.3   112  GLY112      0.1869
    108  C         66.7960   38.7010    4.7200 C.2   112  GLY112      0.2309
    109  O         67.9770   38.4620    4.9710 O.2   112  GLY112     -0.2863
    110  N         65.6630   35.9340    6.8230 N.3   114  ASN114     -0.1240
    111  CA        64.8980   34.7320    7.1230 C.3   114  ASN114      0.1653
    112  C         65.4590   33.7420    8.1420 C.2   114  ASN114      0.2266
    113  O         65.3180   32.5340    7.9890 O.2   114  ASN114     -0.2867
    114  CB        64.5010   33.9910    5.8390 C.3   114  ASN114      0.1155
    115  CG        65.6770   33.6430    4.9680 C.2   114  ASN114      0.2627
    116  OD1       66.8060   33.5420    5.4440 O.2   114  ASN114     -0.2716
    117  ND2       65.4170   33.4330    3.6790 N.am  114  ASN114     -0.0877
    118  N         69.3560   29.1000    7.3180 N.3   117  GLY117     -0.1210
    119  CA        69.6100   28.5440    6.0020 C.3   117  GLY117      0.1956
    120  C         70.0030   27.0860    6.1490 C.2   117  GLY117      0.2612
    121  O         70.5000   26.6710    7.1990 O.2   117  GLY117     -0.2717
    122  N         69.7820   26.3010    5.1030 N.am  118  GLY118     -0.1956
    123  CA        70.1320   24.8960    5.1620 C.3   118  GLY118      0.1869
    124  C         70.2800   24.2680    3.7930 C.2   118  GLY118      0.2309
    125  O         69.6050   24.6520    2.8470 O.2   118  GLY118     -0.2863
    126  N         70.0160   22.2970    0.4830 N.3   120  ASP120     -0.1239
    127  CA        68.8310   21.8770   -0.2580 C.3   120  ASP120      0.1674
    128  C         68.9430   20.5140   -0.9530 C.2   120  ASP120      0.2266
    129  O         68.0450   20.1150   -1.6890 O.2   120  ASP120     -0.2867
    130  CB        68.4600   22.9350   -1.2950 C.3   120  ASP120      0.1410
    131  CG        69.5460   23.1440   -2.3310 C.2   120  ASP120      0.3668
    132  OD1       70.1590   22.1390   -2.7590 O.co2 120  ASP120     -0.2456
    133  OD2       69.7730   24.3100   -2.7300 O.co2 120  ASP120     -0.2456
    134  N         78.7730   21.9950    1.2840 N.3   128  GLU128     -0.1245
    135  CA        78.6980   23.0220    2.3170 C.3   128  GLU128      0.1567
    136  C         79.2840   22.5890    3.6530 C.2   128  GLU128      0.2260
    137  O         79.8570   23.4050    4.3790 O.2   128  GLU128     -0.2867
    138  CB        77.2470   23.4770    2.4850 C.3   128  GLU128      0.0388
    139  CG        76.7850   24.4020    1.3740 C.3   128  GLU128      0.1160
    140  CD        75.2840   24.5220    1.3020 C.2   128  GLU128      0.3649
    141  OE1       74.6690   24.8810    2.3260 O.co2 128  GLU128     -0.2457
    142  OE2       74.7200   24.2560    0.2160 O.co2 128  GLU128     -0.2457
@<TRIPOS>BOND
     1    35    34    2
     2    34    33    1
     3    34    41   am
     4    44    43    2
     5    43    42    1
     6    33    36    1
     7    33    32    1
     8    42    41    1
     9    42    45    1
    10    36    37    1
    11    39    38   ar
    12    51    52    1
    13    47    49   ar
    14    47    46   ar
    15    45    46    1
    16    60    58   ar
    17    60    61   ar
    18    37    38    1
    19    58    56   ar
    20    49    50   ar
    21    38    40   ar
    22    46    48   ar
    23    61    59   ar
    24    52    55    1
    25    52    53    1
    26    56    55    1
    27    56    57   ar
    28    23    22    2
    29    50    48   ar
    30    53    54    2
    31    59    57   ar
    32    22    21    1
    33   132   131   ar
    34   133   131   ar
    35   131   130    1
    36    21    24    1
    37    21    20    1
    38   129   128    2
    39    24    25    1
    40    13    12    2
    41   130   127    1
    42    20    12   am
    43   128   127    1
    44    86    85    1
    45    12    11    1
    46    69    67    1
    47    87    85    1
    48    85    82    1
    49   127   126    1
    50    10    11    1
    51    66    67    1
    52    66    63    1
    53    25    26   ar
    54    25    27   ar
    55    26    28   ar
    56    79    78    1
    57    62    63    1
    58    11    14    1
    59   142   140   ar
    60   104   103    1
    61    67    68    1
    62   105   103    1
    63    63    64    1
    64    27    29   ar
    65    82    81    1
    66    82    83    1
    67   103   100    1
    68    28    30   ar
    69   134   135    1
    70    78    80    1
    71    78    77    2
    72   140   139    1
    73   140   141   ar
    74   139   138    1
    75    64    65    2
    76    14    15    1
    77    83    84    2
    78    76    77    1
    79    76    75    1
    80    29    30   ar
    81    30    31    1
    82    15    17   ar
    83    15    16   ar
    84   135   138    1
    85   135   136    1
    86    17    19   ar
    87    16    18   ar
    88   100   101    1
    89   100    99    1
    90   101   102    2
    91   101   106   am
    92   125   124    2
    93    19    18   ar
    94    75    74    1
    95   106   107    1
    96   107   108    1
    97    74    71    1
    98    97    96    1
    99   136   137    2
   100   117   115   am
   101   124   123    1
   102     9     8    1
   103    98    96    1
   104    96    95    2
   105   108   109    2
   106    71    72    1
   107    71    70    1
   108   115   116    2
   109   115   114    1
   110   122   123    1
   111   122   120   am
   112    72    73    2
   113     8     7    1
   114    95    94    1
   115   114   111    1
   116    94    93    1
   117   119   120    1
   118   119   118    1
   119   120   121    2
   120     7     6    1
   121   110   111    1
   122   111   112    1
   123    93    92    1
   124    92    89    1
   125     6     5    1
   126   113   112    2
   127     5     2    1
   128    89    90    1
   129    89    88    1
   130    90    91    2
   131     2     1    1
   132     2     3    1
   133     3     4    2
