@<TRIPOS>MOLECULE
tmp/1mncA00.pdb
 161 161 0 0 0
SMALL
GASTEIGER

@<TRIPOS>ATOM
      1  N         -7.3140   20.9680   28.0690 N.3    73  ASN73      -0.1225
      2  CA        -7.8470   21.7520   26.9550 C.3    73  ASN73       0.1785
      3  C         -7.8360   23.2340   27.2200 C.2    73  ASN73       0.2598
      4  O         -7.0970   23.6780   28.1100 O.2    73  ASN73      -0.2718
      5  CB        -9.2490   21.2400   26.6340 C.3    73  ASN73       0.1169
      6  CG        -9.1020   19.7460   26.5200 C.2    73  ASN73       0.2627
      7  OD1       -8.3150   19.1620   25.7880 O.2    73  ASN73      -0.2716
      8  ND2       -9.8940   18.9640   27.2510 N.am   73  ASN73      -0.0877
      9  N         -8.5640   24.0430   26.4770 N.am   74  GLY74      -0.1942
     10  CA        -8.5810   25.5010   26.6550 C.3    74  GLY74       0.2014
     11  C         -7.2190   26.0130   26.2110 C.2    74  GLY74       0.2639
     12  O         -6.8300   25.6130   25.0990 O.2    74  GLY74      -0.2714
     13  N         -6.5410   26.8200   27.0000 N.am   75  ILE75      -0.1963
     14  CA        -5.1820   27.2920   26.6690 C.3    75  ILE75       0.1727
     15  C         -4.1510   26.1860   26.9390 C.2    75  ILE75       0.2616
     16  O         -4.1310   25.5780   28.0380 O.2    75  ILE75      -0.2715
     17  CB        -4.7410   28.4660   27.6070 C.3    75  ILE75       0.0290
     18  CG1       -5.8030   29.5710   27.3200 C.3    75  ILE75       0.0022
     19  CG2       -3.2590   28.8090   27.4390 C.3    75  ILE75       0.0023
     20  CD1       -5.7440   29.9790   25.8200 C.3    75  ILE75       0.0001
     21  N         -3.3090   25.9530   25.9300 N.am   76  LEU76      -0.1963
     22  CA        -2.3250   24.8540   26.1020 C.3    76  LEU76       0.1728
     23  C         -0.9790   25.3190   26.5910 C.2    76  LEU76       0.2616
     24  O         -0.3080   24.6050   27.2880 O.2    76  LEU76      -0.2715
     25  CB        -2.2000   24.1020   24.7450 C.3    76  LEU76       0.0311
     26  CG        -3.4210   23.6990   23.9230 C.3    76  LEU76       0.0022
     27  CD1       -2.9810   23.0030   22.6320 C.3    76  LEU76       0.0001
     28  CD2       -4.2810   22.8160   24.8140 C.3    76  LEU76       0.0001
     29  N         -0.5700   26.5150   26.2700 N.am   77  ALA77      -0.1963
     30  CA         0.7020   27.1050   26.6160 C.3    77  ALA77       0.1728
     31  C          0.6890   28.5870   26.2610 C.2    77  ALA77       0.2616
     32  O         -0.2230   28.9900   25.5590 O.2    77  ALA77      -0.2715
     33  CB         1.7450   26.4930   25.6330 C.3    77  ALA77       0.0334
     34  N          1.7130   29.2770   26.7460 N.am   78  HIS78      -0.1959
     35  CA         1.8660   30.7070   26.4280 C.3    78  HIS78       0.1787
     36  C          3.3360   31.0700   26.3870 C.2    78  HIS78       0.2620
     37  O          4.1770   30.3560   26.8970 O.2    78  HIS78      -0.2715
     38  CB         1.0010   31.6050   27.3200 C.3    78  HIS78       0.0785
     39  CG         1.1810   31.5520   28.7990 C.ar   78  HIS78       0.0821
     40  ND1        0.1240   31.5060   29.6230 N.ar   78  HIS78      -0.2267
     41  CD2        2.2770   31.5680   29.5860 C.ar   78  HIS78       0.1154
     42  CE1        0.6000   31.4870   30.8540 C.ar   78  HIS78       0.1986
     43  NE2        1.9250   31.5530   30.8970 N.ar   78  HIS78      -0.2212
     44  N          3.7260   32.1690   25.7640 N.am   79  ALA79      -0.1977
     45  CA         5.1070   32.5950   25.6690 C.3    79  ALA79       0.1597
     46  C          5.1700   34.1110   25.7360 C.2    79  ALA79       0.2287
     47  O          4.2040   34.7880   25.4210 O.2    79  ALA79      -0.2864
     48  CB         5.6880   32.0640   24.3700 C.3    79  ALA79       0.0319
     49  N         -1.9420   16.4250   23.1270 N.3   105  TYR105     -0.1241
     50  CA        -1.4890   17.4900   22.2170 C.3   105  TYR105      0.1605
     51  C         -0.0190   17.1930   21.9360 C.2   105  TYR105      0.2264
     52  O          0.8210   16.8740   22.7910 O.2   105  TYR105     -0.2867
     53  CB        -1.6700   18.8960   22.7680 C.3   105  TYR105      0.0534
     54  CG        -3.1170   19.1360   22.9760 C.ar  105  TYR105     -0.0201
     55  CD1       -3.8390   19.6080   21.8820 C.ar  105  TYR105     -0.0009
     56  CD2       -3.7660   18.9230   24.1930 C.ar  105  TYR105     -0.0009
     57  CE1       -5.2070   19.8490   21.9900 C.ar  105  TYR105      0.0417
     58  CE2       -5.1220   19.1300   24.2870 C.ar  105  TYR105      0.0417
     59  CZ        -5.8510   19.5650   23.1880 C.ar  105  TYR105      0.1957
     60  OH        -7.1770   19.8380   23.2320 O.3   105  TYR105     -0.2866
     61  N          4.6830   20.5880   18.0090 N.3   109  LEU109     -0.1231
     62  CA         3.9030   21.6280   17.3220 C.3   109  LEU109      0.1693
     63  C          3.5230   22.6900   18.3330 C.2   109  LEU109      0.2591
     64  O          3.5040   23.8430   17.9420 O.2   109  LEU109     -0.2718
     65  CB         2.6480   21.0890   16.6180 C.3   109  LEU109      0.0284
     66  CG         2.7950   19.9880   15.6060 C.3   109  LEU109      0.0019
     67  CD1        1.4130   19.4280   15.2720 C.3   109  LEU109      0.0001
     68  CD2        3.2910   20.7130   14.3600 C.3   109  LEU109      0.0001
     69  N          3.2380   22.3670   19.5780 N.am  110  VAL110     -0.1980
     70  CA         2.8720   23.3830   20.5510 C.3   110  VAL110      0.1595
     71  C          4.1040   24.2080   20.8680 C.2   110  VAL110      0.2287
     72  O          3.9620   25.4270   20.9260 O.2   110  VAL110     -0.2864
     73  CB         2.1790   22.8180   21.7810 C.3   110  VAL110      0.0276
     74  CG1        2.0720   23.9760   22.8130 C.3   110  VAL110      0.0022
     75  CG2        0.7840   22.3550   21.4840 C.3   110  VAL110      0.0022
     76  N          4.9740   26.6970   18.0300 N.3   113  HIS113     -0.1226
     77  CA         4.1400   27.8930   18.0670 C.3   113  HIS113      0.1752
     78  C          4.6230   28.8410   19.1350 C.2   113  HIS113      0.2595
     79  O          4.7520   30.0110   18.9130 O.2   113  HIS113     -0.2718
     80  CB         2.6770   27.5480   18.4420 C.3   113  HIS113      0.0759
     81  CG         1.7740   28.7370   18.5310 C.ar  113  HIS113      0.0818
     82  ND1        0.9880   29.2290   17.5460 N.ar  113  HIS113     -0.2268
     83  CD2        1.5180   29.5010   19.5850 C.ar  113  HIS113      0.1154
     84  CE1        0.3150   30.2410   18.0450 C.ar  113  HIS113      0.1986
     85  NE2        0.5980   30.5080   19.3040 N.ar  113  HIS113     -0.2212
     86  N          4.8570   28.4480   20.3520 N.am  114  GLU114     -0.1979
     87  CA         5.3000   29.2420   21.4520 C.3   114  GLU114      0.1602
     88  C          6.5940   29.9280   21.1250 C.2   114  GLU114      0.2287
     89  O          6.6870   31.1080   21.4620 O.2   114  GLU114     -0.2864
     90  CB         5.4920   28.4200   22.7700 C.3   114  GLU114      0.0415
     91  CG         4.1330   27.9840   23.4210 C.3   114  GLU114      0.1163
     92  CD         2.9050   28.8040   23.1340 C.2   114  GLU114      0.3649
     93  OE1        2.8700   30.0350   23.1720 O.co2 114  GLU114     -0.2457
     94  OE2        1.9340   28.1610   22.7440 O.co2 114  GLU114     -0.2457
     95  N          6.5360   33.1980   19.2510 N.3   117  HIS117     -0.1241
     96  CA         6.2660   34.2950   20.1870 C.3   117  HIS117      0.1621
     97  C          7.5610   34.7380   20.8670 C.2   117  HIS117      0.2264
     98  O          7.9130   35.9140   20.9510 O.2   117  HIS117     -0.2867
     99  CB         5.3300   33.9830   21.4030 C.3   117  HIS117      0.0745
    100  CG         3.9180   33.7110   20.9630 C.ar  117  HIS117      0.0817
    101  ND1        3.2090   34.6290   20.2370 N.ar  117  HIS117     -0.2268
    102  CD2        3.0770   32.6600   21.0950 C.ar  117  HIS117      0.1154
    103  CE1        2.0200   34.1380   19.9840 C.ar  117  HIS117      0.1986
    104  NE2        1.8790   32.9470   20.5290 N.ar  117  HIS117     -0.2212
    105  N          0.3080   36.4670   16.3260 N.3   123  HIS123     -0.1241
    106  CA        -0.5160   35.4470   15.7450 C.3   123  HIS123      0.1621
    107  C         -0.7740   35.7390   14.2780 C.2   123  HIS123      0.2264
    108  O         -0.7070   36.8830   13.8510 O.2   123  HIS123     -0.2867
    109  CB        -1.8520   35.2900   16.4520 C.3   123  HIS123      0.0745
    110  CG        -1.6530   34.5890   17.7860 C.ar  123  HIS123      0.0817
    111  ND1       -2.3100   34.8550   18.9270 N.ar  123  HIS123     -0.2268
    112  CD2       -0.7690   33.6130   18.1070 C.ar  123  HIS123      0.1154
    113  CE1       -1.9280   34.0470   19.8920 C.ar  123  HIS123      0.1986
    114  NE2       -0.9570   33.2910   19.4170 N.ar  123  HIS123     -0.2212
    115  N          1.7850   28.2020   11.3800 N.3   130  LEU130     -0.1245
    116  CA         2.0980   27.7100   12.7370 C.3   130  LEU130      0.1561
    117  C          1.7090   28.7450   13.7940 C.2   130  LEU130      0.2260
    118  O          1.3720   28.3860   14.9300 O.2   130  LEU130     -0.2867
    119  CB         3.5870   27.4480   12.6300 C.3   130  LEU130      0.0270
    120  CG         4.2710   26.3610   13.3960 C.3   130  LEU130      0.0019
    121  CD1        5.6680   26.8310   13.7240 C.3   130  LEU130      0.0001
    122  CD2        3.4630   26.1560   14.6590 C.3   130  LEU130      0.0001
    123  N         -0.8540   30.5290   13.8740 N.3   132  TYR132     -0.1228
    124  CA        -2.3050   30.5760   13.9840 C.3   132  TYR132      0.1721
    125  C         -2.6550   30.2190   15.4430 C.2   132  TYR132      0.2437
    126  O         -1.9960   29.3240   16.0200 O.2   132  TYR132     -0.2733
    127  CB        -2.7670   29.5370   13.0080 C.3   132  TYR132      0.0547
    128  CG        -4.2730   29.6730   12.8170 C.ar  132  TYR132     -0.0200
    129  CD1       -4.8130   30.8040   12.2860 C.ar  132  TYR132     -0.0009
    130  CD2       -5.0850   28.6220   13.2100 C.ar  132  TYR132     -0.0009
    131  CE1       -6.1640   30.9410   12.0750 C.ar  132  TYR132      0.0417
    132  CE2       -6.4530   28.7100   13.0270 C.ar  132  TYR132      0.0417
    133  CZ        -6.9650   29.8730   12.4600 C.ar  132  TYR132      0.1957
    134  OH        -8.3130   29.9850   12.2460 O.3   132  TYR132     -0.2866
    135  N         -3.6380   30.9080   16.0530 N.am  133  PRO133     -0.2718
    136  CA        -3.9630   30.7030   17.4600 C.3   133  PRO133      0.1535
    137  C         -4.7040   29.5140   18.0110 C.2   133  PRO133      0.2599
    138  O         -4.9520   29.3620   19.2030 O.2   133  PRO133     -0.2715
    139  CB        -4.7210   31.9990   17.8040 C.3   133  PRO133      0.0310
    140  CG        -5.2940   32.4960   16.5320 C.3   133  PRO133      0.0237
    141  CD        -4.4260   31.9810   15.3960 C.3   133  PRO133      0.0939
    142  N         -5.0530   28.6110   17.1640 N.am  134  ASN134     -0.1959
    143  CA        -5.7540   27.3650   17.3510 C.3   134  ASN134      0.1819
    144  C         -4.8370   26.2510   16.8820 C.2   134  ASN134      0.2621
    145  O         -4.1710   26.1650   15.8450 O.2   134  ASN134     -0.2715
    146  CB        -7.0780   27.3350   16.6150 C.3   134  ASN134      0.1195
    147  CG        -7.9270   28.5180   16.9650 C.2   134  ASN134      0.2630
    148  OD1       -8.7130   28.5520   17.9170 O.2   134  ASN134     -0.2716
    149  ND2       -7.8370   29.5960   16.2020 N.am  134  ASN134     -0.0877
    150  N         -4.7820   25.2830   17.7700 N.am  135  TYR135     -0.1974
    151  CA        -3.9880   24.0930   17.5760 C.3   135  TYR135      0.1639
    152  C         -4.6630   23.2450   16.5290 C.2   135  TYR135      0.2290
    153  O         -5.8470   22.9980   16.5720 O.2   135  TYR135     -0.2864
    154  CB        -3.9400   23.3100   18.8930 C.3   135  TYR135      0.0560
    155  CG        -3.2490   21.9770   18.7430 C.ar  135  TYR135     -0.0198
    156  CD1       -1.8700   21.8400   18.9030 C.ar  135  TYR135     -0.0009
    157  CD2       -4.0580   20.8630   18.4370 C.ar  135  TYR135     -0.0009
    158  CE1       -1.3190   20.5770   18.7370 C.ar  135  TYR135      0.0417
    159  CE2       -3.4760   19.6030   18.2770 C.ar  135  TYR135      0.0417
    160  CZ        -2.0850   19.4670   18.4460 C.ar  135  TYR135      0.1957
    161  OH        -1.5570   18.2300   18.3330 O.3   135  TYR135     -0.2866
@<TRIPOS>BOND
     1   115   116    1
     2   131   129   ar
     3   131   133   ar
     4   134   133    1
     5   129   128   ar
     6   133   132   ar
     7   119   116    1
     8   119   120    1
     9   116   117    1
    10   128   127    1
    11   128   130   ar
    12   127   124    1
    13   132   130   ar
    14   120   121    1
    15   120   122    1
    16   117   118    2
    17   108   107    2
    18   123   124    1
    19   124   125    1
    20   107   106    1
    21    68    66    1
    22    67    66    1
    23   141   135    1
    24   141   140    1
    25   125   126    2
    26   125   135   am
    27    66    65    1
    28   106   105    1
    29   106   109    1
    30   145   144    2
    31   135   136    1
    32   149   147   am
    33   109   110    1
    34   152   153    2
    35   152   151    1
    36   140   139    1
    37   146   147    1
    38   146   143    1
    39    65    62    1
    40   144   143    1
    41   144   150   am
    42   147   148    2
    43   142   143    1
    44   142   137   am
    45    62    61    1
    46    62    63    1
    47   136   139    1
    48   136   137    1
    49    82    84   ar
    50    82    81   ar
    51   151   150    1
    52   151   154    1
    53   110   112   ar
    54   110   111   ar
    55    64    63    2
    56   137   138    2
    57    76    77    1
    58    84    85   ar
    59    77    80    1
    60    77    78    1
    61   112   114   ar
    62   159   157   ar
    63   159   160   ar
    64    63    69   am
    65   161   160    1
    66   157   155   ar
    67    80    81    1
    68   160   158   ar
    69    81    83   ar
    70   158   156   ar
    71   155   154    1
    72   155   156   ar
    73    79    78    2
    74   111   113   ar
    75    78    86   am
    76    95    96    1
    77    85    83   ar
    78   114   113   ar
    79    69    70    1
    80   103   101   ar
    81   103   104   ar
    82    96    97    1
    83    96    99    1
    84   101   100   ar
    85    86    87    1
    86   104   102   ar
    87    70    71    1
    88    70    73    1
    89    97    98    2
    90    71    72    2
    91   100   102   ar
    92   100    99    1
    93    88    87    1
    94    88    89    2
    95    87    90    1
    96    75    73    1
    97    73    74    1
    98    55    57   ar
    99    55    54   ar
   100    51    50    1
   101    51    52    2
   102    57    59   ar
   103    50    53    1
   104    50    49    1
   105    27    26    1
   106    94    92   ar
   107    53    54    1
   108    90    91    1
   109    54    56   ar
   110    92    93   ar
   111    92    91    1
   112    59    60    1
   113    59    58   ar
   114    26    25    1
   115    26    28    1
   116    56    58   ar
   117    48    45    1
   118    25    22    1
   119    12    11    2
   120    47    46    2
   121    32    31    2
   122    33    30    1
   123    45    46    1
   124    45    44    1
   125    44    36   am
   126     7     6    2
   127    20    18    1
   128    21    22    1
   129    21    15   am
   130    22    23    1
   131    11    10    1
   132    11    13   am
   133    31    30    1
   134    31    34   am
   135    29    23   am
   136    29    30    1
   137    36    35    1
   138    36    37    2
   139    35    34    1
   140    35    38    1
   141     9    10    1
   142     9     3   am
   143     6     5    1
   144     6     8   am
   145    23    24    2
   146     5     2    1
   147    14    15    1
   148    14    13    1
   149    14    17    1
   150    15    16    2
   151     2     3    1
   152     2     1    1
   153     3     4    2
   154    38    39    1
   155    18    17    1
   156    19    17    1
   157    39    41   ar
   158    39    40   ar
   159    41    43   ar
   160    40    42   ar
   161    42    43   ar
