@<TRIPOS>MOLECULE
tmp/1mndA00.pdb
 213 208 0 0 0
SMALL
GASTEIGER

@<TRIPOS>ATOM
      1  N         66.0950   34.3500   -9.9180 N.3   104  ILE104     -0.1231
      2  CA        65.8290   34.0240  -11.3200 C.3   104  ILE104      0.1692
      3  C         66.8390   33.1500  -12.0160 C.2   104  ILE104      0.2592
      4  O         66.4420   32.4650  -12.9780 O.2   104  ILE104     -0.2718
      5  CB        65.7360   35.2790  -12.1240 C.3   104  ILE104      0.0266
      6  CG1       67.0120   36.0480  -11.8200 C.3   104  ILE104      0.0019
      7  CG2       64.5150   36.0240  -11.5910 C.3   104  ILE104      0.0020
      8  CD1       67.2410   37.2510  -12.7350 C.3   104  ILE104      0.0001
      9  N         68.1440   33.3280  -11.6760 N.am  105  TYR105     -0.1976
     10  CA        69.1960   32.4850  -12.2600 C.3   105  TYR105      0.1639
     11  C         69.2820   31.1680  -11.5260 C.2   105  TYR105      0.2290
     12  O         69.2780   31.1900  -10.3010 O.2   105  TYR105     -0.2864
     13  CB        70.5640   33.1550  -12.3540 C.3   105  TYR105      0.0560
     14  CG        70.5290   34.4330  -13.1350 C.ar  105  TYR105     -0.0198
     15  CD1       70.6580   35.6620  -12.4920 C.ar  105  TYR105     -0.0009
     16  CD2       70.5100   34.4060  -14.5240 C.ar  105  TYR105     -0.0009
     17  CE1       70.5190   36.8590  -13.1890 C.ar  105  TYR105      0.0417
     18  CE2       70.5200   35.5950  -15.2450 C.ar  105  TYR105      0.0417
     19  CZ        70.4140   36.8120  -14.5800 C.ar  105  TYR105      0.1957
     20  OH        70.4020   37.9780  -15.3120 O.3   105  TYR105     -0.2866
     21  N         61.9760   35.3700  -16.4260 N.3   116  ASN116     -0.1226
     22  CA        61.8980   36.8270  -16.4510 C.3   116  ASN116      0.1773
     23  C         61.3550   37.4210  -15.1770 C.2   116  ASN116      0.2477
     24  O         60.2830   37.0410  -14.7310 O.2   116  ASN116     -0.2730
     25  CB        61.3580   37.4880  -17.7670 C.3   116  ASN116      0.1168
     26  CG        61.5360   39.0070  -17.8360 C.2   116  ASN116      0.2627
     27  OD1       61.8700   39.6590  -16.8250 O.2   116  ASN116     -0.2716
     28  ND2       61.2170   39.5950  -19.0010 N.am  116  ASN116     -0.0877
     29  N         62.1110   38.3310  -14.5660 N.am  117  PRO117     -0.2492
     30  CA        61.6140   39.0190  -13.3940 C.3   117  PRO117      0.1619
     31  C         60.4360   39.8990  -13.7470 C.2   117  PRO117      0.2605
     32  O         59.3910   39.7540  -13.1840 O.2   117  PRO117     -0.2715
     33  CB        62.7490   39.8900  -12.8140 C.3   117  PRO117      0.0570
     34  CG        63.9310   39.6980  -13.7510 C.2   117  PRO117     -0.0077
     35  CD        63.5310   38.6680  -14.8010 C.2   117  PRO117      0.0634
     36  N         60.6380   40.8070  -14.6890 N.am  118  PHE118     -0.1960
     37  CA        59.6500   41.8110  -14.9760 C.3   118  PHE118      0.1771
     38  C         59.6140   42.7750  -13.8050 C.2   118  PHE118      0.2619
     39  O         58.5520   43.2670  -13.3930 O.2   118  PHE118     -0.2715
     40  CB        58.2680   41.1880  -15.2590 C.3   118  PHE118      0.0574
     41  CG        58.1480   40.7620  -16.6940 C.ar  118  PHE118     -0.0200
     42  CD1       57.6440   39.5020  -17.0460 C.ar  118  PHE118     -0.0042
     43  CD2       58.5280   41.6590  -17.6980 C.ar  118  PHE118     -0.0042
     44  CE1       57.6370   39.1210  -18.3900 C.ar  118  PHE118     -0.0003
     45  CE2       58.5220   41.2880  -19.0410 C.ar  118  PHE118     -0.0003
     46  CZ        58.0830   40.0030  -19.3750 C.ar  118  PHE118     -0.0000
     47  N         60.8260   43.0230  -13.2990 N.am  119  LYS119     -0.1963
     48  CA        61.1010   43.8000  -12.1070 C.3   119  LYS119      0.1728
     49  C         62.5840   43.8730  -11.9490 C.2   119  LYS119      0.2616
     50  O         63.2310   42.8930  -12.3320 O.2   119  LYS119     -0.2715
     51  CB        60.5370   43.0320  -10.9360 C.3   119  LYS119      0.0311
     52  CG        61.0900   43.4010   -9.5730 C.3   119  LYS119      0.0038
     53  CD        60.7740   42.2950   -8.5570 C.3   119  LYS119      0.0206
     54  CE        60.9900   42.6840   -7.0880 C.3   119  LYS119      0.1093
     55  NZ        60.4590   41.6000   -6.2000 N.3   119  LYS119     -0.1314
     56  N         63.0450   44.9500  -11.3040 N.am  120  ARG120     -0.1963
     57  CA        64.4580   45.1400  -10.9590 C.3   120  ARG120      0.1729
     58  C         64.8870   44.2890   -9.7770 C.2   120  ARG120      0.2616
     59  O         64.0900   44.0130   -8.8850 O.2   120  ARG120     -0.2715
     60  CB        64.7850   46.5930  -10.6790 C.3   120  ARG120      0.0348
     61  CG        64.1940   47.5430  -11.7330 C.3   120  ARG120      0.0492
     62  CD        64.5800   47.1940  -13.1500 C.3   120  ARG120      0.2205
     63  NE        66.0240   47.2170  -13.3340 N.pl3 120  ARG120     -0.0865
     64  CZ        66.6930   46.2210  -13.9450 C.cat 120  ARG120      0.5346
     65  NH1       66.0590   45.1740  -14.4740 N.pl3 120  ARG120      0.1354
     66  NH2       68.0260   46.2910  -13.9450 N.pl3 120  ARG120      0.1354
     67  N         66.1560   43.8680   -9.8000 N.am  121  ILE121     -0.1977
     68  CA        66.7820   43.0780   -8.7380 C.3   121  ILE121      0.1596
     69  C         68.2760   43.3660   -8.7170 C.2   121  ILE121      0.2287
     70  O         68.9720   43.0780   -9.6930 O.2   121  ILE121     -0.2864
     71  CB        66.5700   41.5820   -8.8650 C.3   121  ILE121      0.0276
     72  CG1       65.1260   41.1780   -8.6560 C.3   121  ILE121      0.0022
     73  CG2       67.4350   40.8460   -7.8550 C.3   121  ILE121      0.0022
     74  CD1       65.0250   39.6640   -8.7000 C.3   121  ILE121      0.0001
     75  N         73.4430   43.1440  -10.0290 N.3   124  TYR124     -0.1241
     76  CA        74.3670   43.5330  -11.0740 C.3   124  TYR124      0.1605
     77  C         75.1470   44.8020  -10.7450 C.2   124  TYR124      0.2264
     78  O         75.1580   45.7440  -11.5300 O.2   124  TYR124     -0.2867
     79  CB        73.6330   43.7320  -12.4130 C.3   124  TYR124      0.0534
     80  CG        72.5810   42.7060  -12.7750 C.ar  124  TYR124     -0.0201
     81  CD1       72.9410   41.4310  -13.2060 C.ar  124  TYR124     -0.0009
     82  CD2       71.2270   43.0430  -12.7650 C.ar  124  TYR124     -0.0009
     83  CE1       71.9930   40.5260  -13.6840 C.ar  124  TYR124      0.0417
     84  CE2       70.2490   42.1390  -13.1960 C.ar  124  TYR124      0.0417
     85  CZ        70.6440   40.8700  -13.6330 C.ar  124  TYR124      0.1957
     86  OH        69.7250   39.9460  -14.0800 O.3   124  TYR124     -0.2866
     87  N         61.6370   33.1230  -26.2790 N.3   169  GLU169     -0.1231
     88  CA        60.5450   33.7080  -27.0010 C.3   169  GLU169      0.1699
     89  C         60.6760   35.2160  -26.8090 C.2   169  GLU169      0.2593
     90  O         61.5860   35.6940  -26.1170 O.2   169  GLU169     -0.2718
     91  CB        59.1870   33.1920  -26.5450 C.3   169  GLU169      0.0402
     92  CG        58.5670   34.0640  -25.4540 C.3   169  GLU169      0.1161
     93  CD        57.1320   33.6680  -25.1190 C.2   169  GLU169      0.3649
     94  OE1       56.8670   32.4590  -24.7610 O.co2 169  GLU169     -0.2457
     95  OE2       56.1890   34.5440  -25.1960 O.co2 169  GLU169     -0.2457
     96  N         59.7840   35.9480  -27.4150 N.am  170  SER170     -0.1938
     97  CA        59.8290   37.4130  -27.3590 C.3   170  SER170      0.2055
     98  C         59.4390   37.9360  -25.9660 C.2   170  SER170      0.2644
     99  O         58.3580   37.6170  -25.4470 O.2   170  SER170     -0.2714
    100  CB        58.8720   37.9990  -28.3920 C.3   170  SER170      0.2130
    101  OG        58.8910   39.4150  -28.3180 O.3   170  SER170     -0.2179
    102  N         60.3600   38.7290  -25.4170 N.am  171  GLY171     -0.1939
    103  CA        60.1930   39.4110  -24.1110 C.3   171  GLY171      0.2014
    104  C         60.8650   38.6420  -22.9560 C.2   171  GLY171      0.2639
    105  O         60.8850   39.1130  -21.8080 O.2   171  GLY171     -0.2714
    106  N         61.4090   37.4870  -23.2990 N.am  172  ALA172     -0.1963
    107  CA        62.0470   36.5520  -22.3360 C.3   172  ALA172      0.1728
    108  C         63.1260   37.2260  -21.4560 C.2   172  ALA172      0.2617
    109  O         63.1720   37.0300  -20.2330 O.2   172  ALA172     -0.2715
    110  CB        62.7030   35.3940  -23.0820 C.3   172  ALA172      0.0334
    111  N         64.0100   37.9960  -22.0780 N.am  173  GLY173     -0.1940
    112  CA        65.0790   38.7130  -21.3360 C.3   173  GLY173      0.2014
    113  C         66.4750   38.3960  -21.8990 C.2   173  GLY173      0.2639
    114  O         67.4720   38.3730  -21.1570 O.2   173  GLY173     -0.2714
    115  N         66.4910   38.1740  -23.2000 N.am  174  LYS174     -0.1963
    116  CA        67.7130   37.8600  -23.9620 C.3   174  LYS174      0.1728
    117  C         68.6330   39.0720  -24.0500 C.2   174  LYS174      0.2617
    118  O         69.8530   38.9700  -23.8540 O.2   174  LYS174     -0.2715
    119  CB        67.3620   37.5080  -25.4080 C.3   174  LYS174      0.0311
    120  CG        66.8370   36.0890  -25.5870 C.3   174  LYS174      0.0038
    121  CD        66.7860   35.6660  -27.0580 C.3   174  LYS174      0.0206
    122  CE        65.3600   35.5350  -27.5980 C.3   174  LYS174      0.1093
    123  NZ        64.7150   36.8330  -27.8510 N.3   174  LYS174     -0.1314
    124  N         68.0060   40.1830  -24.3580 N.am  175  THR175     -0.1937
    125  CA        68.6980   41.4560  -24.5400 C.3   175  THR175      0.2028
    126  C         69.2970   41.9140  -23.2120 C.2   175  THR175      0.2642
    127  O         70.5190   42.0840  -23.0890 O.2   175  THR175     -0.2714
    128  CB        67.7140   42.4840  -25.0960 C.3   175  THR175      0.1808
    129  OG1       67.4660   42.2090  -26.4700 O.3   175  THR175     -0.2208
    130  CG2       68.2250   43.9200  -25.0030 C.3   175  THR175      0.0379
    131  N         68.4200   42.0950  -22.2490 N.am  176  GLU176     -0.1963
    132  CA        68.8140   42.5320  -20.9070 C.3   176  GLU176      0.1733
    133  C         69.9700   41.6600  -20.3990 C.2   176  GLU176      0.2616
    134  O         70.9920   42.1600  -19.9130 O.2   176  GLU176     -0.2715
    135  CB        67.6190   42.4520  -19.9610 C.3   176  GLU176      0.0429
    136  CG        66.6670   43.6430  -20.1150 C.3   176  GLU176      0.1163
    137  CD        67.3300   44.9880  -19.8000 C.2   176  GLU176      0.3649
    138  OE1       66.6260   46.0700  -19.7950 O.co2 176  GLU176     -0.2457
    139  OE2       68.5920   45.0400  -19.5370 O.co2 176  GLU176     -0.2457
    140  N         69.8120   40.3540  -20.5130 N.am  177  ASN177     -0.1972
    141  CA        70.8710   39.4320  -20.0830 C.3   177  ASN177      0.1688
    142  C         72.1100   39.6980  -20.9390 C.2   177  ASN177      0.2292
    143  O         73.2130   39.9160  -20.4200 O.2   177  ASN177     -0.2864
    144  CB        70.4050   37.9820  -20.2060 C.3   177  ASN177      0.1181
    145  CG        69.8420   37.4440  -18.8860 C.2   177  ASN177      0.2629
    146  OD1       68.6990   36.9910  -18.8430 O.2   177  ASN177     -0.2716
    147  ND2       70.5800   37.4720  -17.7900 N.am  177  ASN177     -0.0877
    148  N         74.2610   42.4660  -20.2060 N.3   180  LYS180     -0.1245
    149  CA        74.8820   42.3600  -18.9220 C.3   180  LYS180      0.1561
    150  C         76.1650   41.6090  -19.1540 C.2   180  LYS180      0.2260
    151  O         77.1970   41.9700  -18.5820 O.2   180  LYS180     -0.2867
    152  CB        73.9320   41.7110  -17.8800 C.3   180  LYS180      0.0271
    153  CG        73.1360   42.6300  -16.8940 C.3   180  LYS180      0.0035
    154  CD        72.6150   43.9540  -17.4590 C.3   180  LYS180      0.0206
    155  CE        71.1130   44.1590  -17.2540 C.3   180  LYS180      0.1093
    156  NZ        70.5130   45.2030  -18.1770 N.3   180  LYS180     -0.1314
    157  N         56.3780   42.6840  -26.0570 N.3   214  ASN214     -0.1225
    158  CA        57.4090   43.3930  -25.3530 C.3   214  ASN214      0.1785
    159  C         57.3980   44.8600  -25.7090 C.2   214  ASN214      0.2597
    160  O         56.9410   45.2780  -26.7680 O.2   214  ASN214     -0.2718
    161  CB        58.7530   42.7420  -25.5900 C.3   214  ASN214      0.1169
    162  CG        59.8730   43.4260  -24.8820 C.2   214  ASN214      0.2627
    163  OD1       60.0170   44.6630  -24.8770 O.2   214  ASN214     -0.2716
    164  ND2       60.7580   42.5810  -24.4120 N.am  214  ASN214     -0.0877
    165  N         57.8250   45.6400  -24.7460 N.am  215  ASN215     -0.1960
    166  CA        57.7240   47.0770  -24.7990 C.3   215  ASN215      0.1819
    167  C         58.9930   47.6730  -25.3390 C.2   215  ASN215      0.2621
    168  O         59.2420   48.8840  -25.3670 O.2   215  ASN215     -0.2715
    169  CB        57.4550   47.6010  -23.3710 C.3   215  ASN215      0.1195
    170  CG        55.9760   47.6920  -22.9780 C.2   215  ASN215      0.2630
    171  OD1       55.6320   48.3980  -22.0280 O.2   215  ASN215     -0.2716
    172  ND2       55.0850   47.1390  -23.7810 N.am  215  ASN215     -0.0877
    173  N         59.8750   46.7860  -25.6140 N.am  216  ASN216     -0.1958
    174  CA        61.1620   47.2110  -26.0470 C.3   216  ASN216      0.1819
    175  C         61.7470   46.1370  -26.8870 C.2   216  ASN216      0.2622
    176  O         62.6040   45.3870  -26.4500 O.2   216  ASN216     -0.2715
    177  CB        62.0610   47.5070  -24.8670 C.3   216  ASN216      0.1195
    178  CG        63.3350   48.1580  -25.3200 C.2   216  ASN216      0.2630
    179  OD1       63.3080   49.0090  -26.2420 O.2   216  ASN216     -0.2716
    180  ND2       64.4440   47.7420  -24.6880 N.am  216  ASN216     -0.0877
    181  N         61.0700   45.9650  -27.9870 N.am  217  SER217     -0.1936
    182  CA        61.3410   44.9120  -28.9120 C.3   217  SER217      0.2055
    183  C         62.4510   45.2350  -29.9530 C.2   217  SER217      0.2643
    184  O         62.4470   46.3190  -30.5630 O.2   217  SER217     -0.2714
    185  CB        60.1240   44.3230  -29.6160 C.3   217  SER217      0.2130
    186  OG        60.4010   42.9950  -30.0350 O.3   217  SER217     -0.2179
    187  N         63.3400   44.1990  -30.0600 N.am  218  SER218     -0.1949
    188  CA        64.5660   44.1230  -30.9440 C.3   218  SER218      0.1924
    189  C         64.1860   43.6560  -32.3700 C.2   218  SER218      0.2314
    190  O         64.1950   42.4580  -32.6840 O.2   218  SER218     -0.2863
    191  CB        65.5830   43.1710  -30.3430 C.3   218  SER218      0.2116
    192  OG        65.3170   43.0010  -28.9610 O.3   218  SER218     -0.2180
    193  N         72.3060   37.4500  -29.9580 N.3   434  ASP434     -0.1239
    194  CA        71.0050   37.8880  -29.4530 C.3   434  ASP434      0.1674
    195  C         70.0500   38.0940  -30.5970 C.2   434  ASP434      0.2266
    196  O         69.8860   39.1960  -31.1400 O.2   434  ASP434     -0.2867
    197  CB        71.1040   39.1300  -28.5360 C.3   434  ASP434      0.1410
    198  CG        69.9120   40.0620  -28.4200 C.2   434  ASP434      0.3668
    199  OD1       70.0140   41.2700  -28.2600 O.co2 434  ASP434     -0.2456
    200  OD2       68.7740   39.4430  -28.2730 O.co2 434  ASP434     -0.2456
    201  N         63.5280   37.0690  -31.0100 N.3   437  GLY437     -0.1225
    202  CA        62.7700   35.9810  -30.4140 C.3   437  GLY437      0.1811
    203  C         61.4440   35.6540  -31.0800 C.2   437  GLY437      0.2280
    204  O         60.6200   36.5380  -31.3140 O.2   437  GLY437     -0.2866
    205  N         53.1070   40.0440  -19.0800 N.3   614  GLN614     -0.1245
    206  CA        54.3540   40.7780  -18.8460 C.3   614  GLN614      0.1566
    207  C         54.3930   41.4010  -17.4520 C.2   614  GLN614      0.2260
    208  O         54.4100   42.6360  -17.3630 O.2   614  GLN614     -0.2867
    209  CB        54.5890   41.9070  -19.8860 C.3   614  GLN614      0.0367
    210  CG        55.0930   41.4920  -21.3070 C.3   614  GLN614      0.0905
    211  CD        55.3960   42.7010  -22.2250 C.2   614  GLN614      0.2608
    212  OE1       56.5260   43.2200  -22.2940 O.2   614  GLN614     -0.2717
    213  NE2       54.3590   43.2980  -22.7930 N.am  614  GLN614     -0.0878
@<TRIPOS>BOND
     1   190   189    2
     2   189   188    1
     3   204   203    2
     4   196   195    2
     5   203   202    1
     6   201   202    1
     7   188   191    1
     8   188   187    1
     9   195   194    1
    10   184   183    2
    11   191   192    1
    12   187   183   am
    13   186   185    1
    14   193   194    1
    15   183   182    1
    16   185   182    1
    17   194   197    1
    18   182   181    1
    19   197   198    1
    20   198   200   ar
    21   198   199   ar
    22   100   101    1
    23   100    97    1
    24   181   175   am
    25   123   122    1
    26   122   121    1
    27    96    97    1
    28    96    89   am
    29    97    98    1
    30   121   120    1
    31    88    89    1
    32    88    91    1
    33    88    87    1
    34   175   176    2
    35   175   174    1
    36    89    90    2
    37   160   159    2
    38    91    92    1
    39   129   128    1
    40   179   178    2
    41   157   158    1
    42   174   173    1
    43   174   177    1
    44    98    99    2
    45    98   102   am
    46   159   158    1
    47   159   165   am
    48   173   167   am
    49   161   158    1
    50   161   162    1
    51   120   119    1
    52    92    93    1
    53   102   103    1
    54   119   116    1
    55   168   167    2
    56   167   166    1
    57   178   177    1
    58   178   180   am
    59    95    93   ar
    60    93    94   ar
    61   128   130    1
    62   128   125    1
    63   162   163    2
    64   162   164   am
    65   166   165    1
    66   166   169    1
    67   125   124    1
    68   125   126    1
    69   124   117   am
    70   103   104    1
    71   117   116    1
    72   117   118    2
    73   116   115    1
    74   172   170   am
    75   169   170    1
    76   106   104   am
    77   106   107    1
    78   126   127    2
    79   126   131   am
    80   115   113   am
    81   110   107    1
    82   170   171    2
    83   104   105    2
    84   213   211   am
    85   107   108    1
    86   212   211    2
    87   131   132    1
    88   211   210    1
    89   111   108   am
    90   111   112    1
    91   113   112    1
    92   113   114    2
    93   108   109    2
    94   210   209    1
    95   142   143    2
    96   142   141    1
    97   132   133    1
    98   132   135    1
    99   140   133   am
   100   140   141    1
   101   133   134    2
   102   144   141    1
   103   144   145    1
   104   148   149    1
   105   136   135    1
   106   136   137    1
   107   209   206    1
   108   137   138   ar
   109   137   139   ar
   110    46    45   ar
   111    46    44   ar
   112   150   149    1
   113   150   151    2
   114   205   206    1
   115    45    43   ar
   116    28    26   am
   117   149   152    1
   118   145   146    2
   119   145   147   am
   120   206   207    1
   121    44    42   ar
   122   156   155    1
   123   152   153    1
   124    26    25    1
   125    26    27    2
   126    25    22    1
   127    43    41   ar
   128   154   155    1
   129   154   153    1
   130   207   208    2
   131    42    41   ar
   132    41    40    1
   133    22    21    1
   134    22    23    1
   135    20    19    1
   136    40    37    1
   137    18    19   ar
   138    18    16   ar
   139    23    24    2
   140    23    29   am
   141    37    36    1
   142    37    38    1
   143    35    29    1
   144    35    34    2
   145    36    31   am
   146    19    17   ar
   147    29    30    1
   148    16    14   ar
   149    65    64    1
   150    86    85    1
   151    64    66    1
   152    64    63    2
   153    38    39    2
   154    38    47   am
   155    34    33    1
   156    31    30    1
   157    31    32    2
   158    83    85   ar
   159    83    81   ar
   160    85    84   ar
   161    30    33    1
   162    63    62    1
   163    47    48    1
   164    81    80   ar
   165    84    82   ar
   166    17    15   ar
   167    62    61    1
   168    14    15   ar
   169    14    13    1
   170     4     3    2
   171    80    82   ar
   172    80    79    1
   173     8     6    1
   174    79    76    1
   175    13    10    1
   176    50    49    2
   177    10     9    1
   178    10    11    1
   179     5     6    1
   180     5     7    1
   181     5     2    1
   182    48    49    1
   183    48    51    1
   184     3     9   am
   185     3     2    1
   186    49    56   am
   187    61    60    1
   188    78    77    2
   189    11    12    2
   190     2     1    1
   191    56    57    1
   192    76    77    1
   193    76    75    1
   194    57    60    1
   195    57    58    1
   196    51    52    1
   197    67    58   am
   198    67    68    1
   199    58    59    2
   200    70    69    2
   201    52    53    1
   202    71    68    1
   203    71    72    1
   204    71    73    1
   205    68    69    1
   206    74    72    1
   207    53    54    1
   208    54    55    1
