@<TRIPOS>MOLECULE
tmp/1mnyA00.pdb
 189 181 0 0 0
SMALL
GASTEIGER

@<TRIPOS>ATOM
      1  N          1.5820   -1.6790   -0.4760 N.3    23  VAL23      -0.1245
      2  CA         0.3820   -1.4640   -1.2650 C.3    23  VAL23       0.1561
      3  C          0.3070    0.0300   -1.5870 C.2    23  VAL23       0.2260
      4  O          0.5850    0.8480   -0.7120 O.2    23  VAL23      -0.2867
      5  CB        -0.8440   -1.9920   -0.4850 C.3    23  VAL23       0.0252
      6  CG1       -1.5950   -3.0040   -1.3410 C.3    23  VAL23       0.0019
      7  CG2       -0.5140   -2.7520    0.8100 C.3    23  VAL23       0.0019
      8  N         -1.2590    3.6780   -2.8230 N.3    25  LEU25      -0.1245
      9  CA        -2.5380    4.3730   -2.6870 C.3    25  LEU25       0.1561
     10  C         -2.3550    5.8580   -3.0530 C.2    25  LEU25       0.2260
     11  O         -2.1680    6.6920   -2.1760 O.2    25  LEU25      -0.2867
     12  CB        -3.1820    4.1520   -1.2960 C.3    25  LEU25       0.0270
     13  CG        -2.9430    2.7740   -0.6540 C.3    25  LEU25       0.0019
     14  CD1       -3.2930    2.8070    0.8300 C.3    25  LEU25       0.0001
     15  CD2       -3.7690    1.6510   -1.2840 C.3    25  LEU25       0.0001
     16  N          2.5080    2.5270    0.8090 N.3    30  TYR30      -0.1241
     17  CA         2.1300    2.2510    2.1870 C.3    30  TYR30       0.1605
     18  C          2.6750    0.8890    2.5480 C.2    30  TYR30       0.2264
     19  O          2.4400   -0.0790    1.8280 O.2    30  TYR30      -0.2867
     20  CB         0.6120    2.2700    2.3460 C.3    30  TYR30       0.0534
     21  CG         0.0370    3.6340    2.0680 C.ar   30  TYR30      -0.0201
     22  CD1       -0.1100    4.0750    0.7430 C.ar   30  TYR30      -0.0009
     23  CD2       -0.2930    4.4860    3.1330 C.ar   30  TYR30      -0.0009
     24  CE1       -0.6180    5.3540    0.4840 C.ar   30  TYR30       0.0417
     25  CE2       -0.8140    5.7630    2.8740 C.ar   30  TYR30       0.0417
     26  CZ        -1.0030    6.1970    1.5460 C.ar   30  TYR30       0.1957
     27  OH        -1.5410    7.4230    1.2980 O.3    30  TYR30      -0.2866
     28  N          2.1660   -2.1970    4.6950 N.3    32  LEU32      -0.1245
     29  CA         1.1040   -2.8060    5.4670 C.3    32  LEU32       0.1561
     30  C          1.5030   -4.2180    5.8770 C.2    32  LEU32       0.2260
     31  O          0.6370   -5.0150    6.2200 O.2    32  LEU32      -0.2867
     32  CB        -0.1980   -2.7730    4.6560 C.3    32  LEU32       0.0270
     33  CG        -0.6710   -1.3470    4.3240 C.3    32  LEU32       0.0019
     34  CD1       -2.0680   -1.4250    3.7100 C.3    32  LEU32       0.0001
     35  CD2       -0.7260   -0.4150    5.5410 C.3    32  LEU32       0.0001
     36  N          0.0370   -4.7710    8.9590 N.3    35  PHE35      -0.1241
     37  CA        -1.3730   -4.4380    8.8870 C.3    35  PHE35       0.1605
     38  C         -2.1270   -5.4480    8.0160 C.2    35  PHE35       0.2264
     39  O         -3.1520   -5.1070    7.4390 O.2    35  PHE35      -0.2867
     40  CB        -1.5400   -3.0110    8.3580 C.3    35  PHE35       0.0534
     41  CG        -2.8420   -2.3390    8.7530 C.ar   35  PHE35      -0.0203
     42  CD1       -3.1580   -2.1660   10.1140 C.ar   35  PHE35      -0.0042
     43  CD2       -3.7290   -1.8670    7.7680 C.ar   35  PHE35      -0.0042
     44  CE1       -4.3650   -1.5470   10.4860 C.ar   35  PHE35      -0.0003
     45  CE2       -4.9260   -1.2310    8.1410 C.ar   35  PHE35      -0.0003
     46  CZ        -5.2490   -1.0780    9.5000 C.ar   35  PHE35      -0.0000
     47  N         -5.7130   -5.4950    9.5100 N.3    39  HIS39      -0.1227
     48  CA        -6.6840   -4.8090    8.6750 C.3    39  HIS39       0.1737
     49  C         -8.0810   -5.3950    8.9080 C.2    39  HIS39       0.2438
     50  O         -8.2670   -6.6000    8.7440 O.2    39  HIS39      -0.2733
     51  CB        -6.2870   -4.9440    7.2040 C.3    39  HIS39       0.0758
     52  CG        -7.3340   -4.4630    6.2500 C.ar   39  HIS39       0.0818
     53  ND1       -8.1220   -5.2800    5.5020 N.ar   39  HIS39      -0.2268
     54  CD2       -7.6260   -3.1550    6.0010 C.ar   39  HIS39       0.1154
     55  CE1       -8.9270   -4.5180    4.7600 C.ar   39  HIS39       0.1986
     56  NE2       -8.6520   -3.2140    5.0350 N.ar   39  HIS39      -0.2212
     57  N         -9.0790   -4.5650    9.2490 N.am   40  PRO40      -0.2718
     58  CA       -10.4430   -5.0090    9.4870 C.3    40  PRO40       0.1535
     59  C        -11.1280   -5.3040    8.1500 C.2    40  PRO40       0.2599
     60  O        -11.7840   -4.4510    7.5520 O.2    40  PRO40      -0.2715
     61  CB       -11.1010   -3.8650   10.2580 C.3    40  PRO40       0.0310
     62  CG       -10.3790   -2.6400    9.7040 C.3    40  PRO40       0.0237
     63  CD        -8.9550   -3.1390    9.4940 C.3    40  PRO40       0.0939
     64  N        -10.9660   -6.5380    7.6780 N.am   41  GLY41      -0.1955
     65  CA       -11.4680   -6.9730    6.3880 C.3    41  GLY41       0.1869
     66  C        -11.0190   -8.4000    6.1050 C.2    41  GLY41       0.2309
     67  O        -11.8050   -9.2120    5.6280 O.2    41  GLY41      -0.2863
     68  N         -6.9650   -9.7430    0.9770 N.3    45  VAL45      -0.1231
     69  CA        -7.5300   -8.6060    0.2460 C.3    45  VAL45       0.1692
     70  C         -6.5200   -7.4780    0.0140 C.2    45  VAL45       0.2591
     71  O         -6.5450   -6.8520   -1.0380 O.2    45  VAL45      -0.2718
     72  CB        -8.7970   -8.0840    0.9490 C.3    45  VAL45       0.0266
     73  CG1       -9.8920   -9.1550    0.9610 C.3    45  VAL45       0.0020
     74  CG2       -8.5490   -7.6230    2.3930 C.3    45  VAL45       0.0020
     75  N         -5.6290   -7.1890    0.9650 N.am   46  LEU46      -0.1980
     76  CA        -4.5630   -6.2170    0.7250 C.3    46  LEU46       0.1596
     77  C         -3.5590   -6.8110   -0.2590 C.2    46  LEU46       0.2287
     78  O         -3.0770   -6.1350   -1.1680 O.2    46  LEU46      -0.2864
     79  CB        -3.8660   -5.8510    2.0440 C.3    46  LEU46       0.0297
     80  CG        -4.4760   -4.6140    2.7180 C.3    46  LEU46       0.0022
     81  CD1       -5.9900   -4.7030    2.8920 C.3    46  LEU46       0.0001
     82  CD2       -3.8470   -4.4490    4.1020 C.3    46  LEU46       0.0001
     83  N         -4.0320   -8.7450   -2.6280 N.3    48  GLU48      -0.1231
     84  CA        -4.6180   -8.7420   -3.9680 C.3    48  GLU48       0.1699
     85  C         -3.9600   -7.7000   -4.8770 C.2    48  GLU48       0.2592
     86  O         -3.9400   -7.8820   -6.0900 O.2    48  GLU48      -0.2718
     87  CB        -6.1320   -8.4690   -3.8930 C.3    48  GLU48       0.0402
     88  CG        -6.9700   -9.6010   -3.2900 C.3    48  GLU48       0.1161
     89  CD        -7.0600  -10.8050   -4.2280 C.2    48  GLU48       0.3649
     90  OE1       -6.0220  -11.4810   -4.3950 O.co2  48  GLU48      -0.2457
     91  OE2       -8.1640  -11.0190   -4.7770 O.co2  48  GLU48      -0.2457
     92  N         -3.4250   -6.6080   -4.3180 N.am   49  GLN49      -0.1979
     93  CA        -2.7110   -5.5990   -5.0960 C.3    49  GLN49       0.1601
     94  C         -1.3800   -5.2680   -4.4150 C.2    49  GLN49       0.2287
     95  O         -0.9260   -4.1230   -4.4060 O.2    49  GLN49      -0.2864
     96  CB        -3.5970   -4.3570   -5.2800 C.3    49  GLN49       0.0394
     97  CG        -4.8500   -4.6040   -6.1330 C.3    49  GLN49       0.0908
     98  CD        -4.5480   -4.8310   -7.6140 C.2    49  GLN49       0.2608
     99  OE1       -3.4090   -5.0190   -8.0290 O.2    49  GLN49      -0.2717
    100  NE2       -5.5810   -4.8150   -8.4480 N.am   49  GLN49      -0.0878
    101  N         -2.9440   -0.5500   -6.0670 N.3    54  ALA54      -0.1245
    102  CA        -4.0420   -0.7700   -5.1380 C.3    54  ALA54       0.1562
    103  C         -4.9710    0.4410   -5.0370 C.2    54  ALA54       0.2260
    104  O         -6.0380    0.3360   -4.4460 O.2    54  ALA54      -0.2867
    105  CB        -3.4610   -1.1660   -3.7890 C.3    54  ALA54       0.0290
    106  N         -8.4450    0.0370   -6.3120 N.3    57  ASN57      -0.1225
    107  CA        -8.9860   -0.9880   -5.4360 C.3    57  ASN57       0.1785
    108  C         -8.9630   -0.5870   -3.9650 C.2    57  ASN57       0.2597
    109  O         -8.9530   -1.4570   -3.0980 O.2    57  ASN57      -0.2718
    110  CB        -8.1920   -2.2970   -5.6140 C.3    57  ASN57       0.1169
    111  CG        -8.3830   -2.9450   -6.9780 C.2    57  ASN57       0.2627
    112  OD1       -8.1920   -2.3250   -8.0130 O.2    57  ASN57      -0.2716
    113  ND2       -8.7280   -4.2270   -7.0130 N.am   57  ASN57      -0.0877
    114  N         -9.0030    0.7030   -3.6480 N.am   58  PHE58      -0.1976
    115  CA        -8.9800    1.1420   -2.2680 C.3    58  PHE58       0.1639
    116  C         -9.9120    2.3420   -2.1280 C.2    58  PHE58       0.2290
    117  O        -10.7810    2.3450   -1.2570 O.2    58  PHE58      -0.2864
    118  CB        -7.5330    1.5280   -1.9030 C.3    58  PHE58       0.0560
    119  CG        -7.3400    2.5380   -0.7790 C.ar   58  PHE58      -0.0200
    120  CD1       -7.4710    2.1560    0.5670 C.ar   58  PHE58      -0.0042
    121  CD2       -6.9600    3.8590   -1.0870 C.ar   58  PHE58      -0.0042
    122  CE1       -7.2150    3.0840    1.5950 C.ar   58  PHE58      -0.0003
    123  CE2       -6.7290    4.7950   -0.0640 C.ar   58  PHE58      -0.0003
    124  CZ        -6.8450    4.4040    1.2810 C.ar   58  PHE58      -0.0000
    125  N        -13.5830    1.6030   -2.4560 N.3    61  VAL61      -0.1245
    126  CA       -14.1700    0.9760   -1.2790 C.3    61  VAL61       0.1561
    127  C        -14.6960    2.0440   -0.3080 C.2    61  VAL61       0.2260
    128  O        -15.5580    1.7530    0.5190 O.2    61  VAL61      -0.2867
    129  CB       -13.1380    0.0310   -0.6360 C.3    61  VAL61       0.0252
    130  CG1      -13.7320   -0.7650    0.5330 C.3    61  VAL61       0.0019
    131  CG2      -12.5600   -0.9580   -1.6660 C.3    61  VAL61       0.0019
    132  N        -13.6490    3.9160    2.2900 N.3    63  HIS63      -0.1226
    133  CA       -13.4660    3.4720    3.6620 C.3    63  HIS63       0.1752
    134  C        -14.2450    4.3040    4.6810 C.2    63  HIS63       0.2596
    135  O        -15.1730    3.8200    5.3240 O.2    63  HIS63      -0.2718
    136  CB       -11.9640    3.4780    3.9680 C.3    63  HIS63       0.0759
    137  CG       -11.2340    2.2900    3.4010 C.ar   63  HIS63       0.0818
    138  ND1      -11.5270    1.5920    2.2500 N.ar   63  HIS63      -0.2268
    139  CD2      -10.3440    1.5590    4.1260 C.ar   63  HIS63       0.1154
    140  CE1      -10.8570    0.4280    2.3050 C.ar   63  HIS63       0.1986
    141  NE2      -10.1540    0.3540    3.4460 N.ar   63  HIS63      -0.2212
    142  N        -13.8060    5.5460    4.8690 N.am   64  SER64      -0.1952
    143  CA       -14.4430    6.5470    5.7050 C.3    64  SER64       0.1924
    144  C        -13.6940    7.8590    5.4520 C.2    64  SER64       0.2314
    145  O        -12.8530    7.9290    4.5560 O.2    64  SER64      -0.2863
    146  CB       -14.3740    6.1210    7.1810 C.3    64  SER64       0.2116
    147  OG       -15.1140    7.0060    7.9960 O.3    64  SER64      -0.2180
    148  N        -10.3730    6.9550    8.6780 N.3    67  ALA67      -0.1231
    149  CA        -9.4980    5.8010    8.5760 C.3    67  ALA67       0.1694
    150  C         -8.5320    5.9370    7.4050 C.2    67  ALA67       0.2591
    151  O         -7.3810    5.5190    7.4910 O.2    67  ALA67      -0.2718
    152  CB       -10.3530    4.5460    8.3870 C.3    67  ALA67       0.0304
    153  N         -8.9910    6.4890    6.2780 N.am   68  ARG68      -0.1980
    154  CA        -8.0820    6.6900    5.1580 C.3    68  ARG68       0.1597
    155  C         -6.9770    7.6640    5.5450 C.2    68  ARG68       0.2287
    156  O         -5.8560    7.5000    5.0830 O.2    68  ARG68      -0.2864
    157  CB        -8.8130    7.0560    3.8570 C.3    68  ARG68       0.0334
    158  CG        -9.6750    8.3210    3.9030 C.3    68  ARG68       0.0492
    159  CD       -10.5490    8.3900    2.6410 C.3    68  ARG68       0.2205
    160  NE        -9.8120    8.8380    1.4410 N.pl3  68  ARG68      -0.0865
    161  CZ        -9.9440   10.0280    0.8350 C.cat  68  ARG68       0.5346
    162  NH1      -10.7240   10.9780    1.3570 N.pl3  68  ARG68       0.1354
    163  NH2       -9.2970   10.2720   -0.3020 N.pl3  68  ARG68       0.1354
    164  N         -5.6110    7.7270    8.5380 N.3    70  LEU70      -0.1231
    165  CA        -4.7180    6.8880    9.3520 C.3    70  LEU70       0.1693
    166  C         -3.5790    6.2470    8.5470 C.2    70  LEU70       0.2592
    167  O         -2.5150    5.9670    9.0980 O.2    70  LEU70      -0.2718
    168  CB        -5.5190    5.8130   10.0970 C.3    70  LEU70       0.0284
    169  CG        -5.5650    6.0540   11.6090 C.3    70  LEU70       0.0019
    170  CD1       -6.1460    7.4270   11.9610 C.3    70  LEU70       0.0001
    171  CD2       -6.4640    4.9760   12.2060 C.3    70  LEU70       0.0001
    172  N         -3.7810    6.0170    7.2470 N.am   71  SER71      -0.1952
    173  CA        -2.7740    5.3930    6.3950 C.3    71  SER71       0.1924
    174  C         -1.4410    6.1480    6.4000 C.2    71  SER71       0.2314
    175  O         -0.3910    5.5680    6.1430 O.2    71  SER71      -0.2863
    176  CB        -3.3030    5.2640    4.9670 C.3    71  SER71       0.2116
    177  OG        -3.3370    6.5120    4.3010 O.3    71  SER71      -0.2180
    178  N          1.5910    4.9800    8.1440 N.3    74  TYR74      -0.1241
    179  CA         2.1170    3.7740    7.5150 C.3    74  TYR74       0.1605
    180  C          2.7580    4.0720    6.1560 C.2    74  TYR74       0.2264
    181  O          3.2490    3.1650    5.4840 O.2    74  TYR74      -0.2867
    182  CB         0.9790    2.7760    7.2930 C.3    74  TYR74       0.0534
    183  CG         0.3430    2.2150    8.5510 C.ar   74  TYR74      -0.0201
    184  CD1       -0.5710    2.9910    9.2890 C.ar   74  TYR74      -0.0009
    185  CD2        0.6460    0.9040    8.9680 C.ar   74  TYR74      -0.0009
    186  CE1       -1.1680    2.4680   10.4490 C.ar   74  TYR74       0.0417
    187  CE2        0.0450    0.3680   10.1220 C.ar   74  TYR74       0.0417
    188  CZ        -0.8650    1.1530   10.8700 C.ar   74  TYR74       0.1957
    189  OH        -1.4540    0.6570   11.9950 O.3    74  TYR74      -0.2866
@<TRIPOS>BOND
     1   100    98   am
     2    99    98    2
     3   112   111    2
     4    98    97    1
     5   113   111   am
     6   111   110    1
     7   106   107    1
     8    97    96    1
     9    86    85    2
    10   101   102    1
    11   110   107    1
    12   107   108    1
    13    96    93    1
    14   102   103    1
    15   102   105    1
    16    93    94    1
    17    93    92    1
    18   103   104    2
    19    85    92   am
    20    85    84    1
    21    91    89   ar
    22    94    95    2
    23    90    89   ar
    24    89    88    1
    25    84    87    1
    26    84    83    1
    27   108   114   am
    28   108   109    2
    29    87    88    1
    30   114   115    1
    31    10     9    1
    32    10    11    2
    33     8     9    1
    34     9    12    1
    35   125   126    1
    36   115   116    1
    37   115   118    1
    38   116   117    2
    39   118   119    1
    40   131   129    1
    41     3     2    1
    42     3     4    2
    43     6     5    1
    44    12    13    1
    45    15    13    1
    46   126   129    1
    47   126   127    1
    48     2     5    1
    49     2     1    1
    50    78    77    2
    51   121   119   ar
    52   121   123   ar
    53    71    70    2
    54   119   120   ar
    55    13    14    1
    56   129   130    1
    57     5     7    1
    58   127   128    2
    59   163   161    1
    60    77    76    1
    61   123   124   ar
    62    70    69    1
    63    70    75   am
    64    69    72    1
    65    69    68    1
    66    24    22   ar
    67    24    26   ar
    68   120   122   ar
    69    76    75    1
    70    76    79    1
    71    22    21   ar
    72    16    17    1
    73   161   162    1
    74   161   160    2
    75    72    73    1
    76    72    74    1
    77   124   122   ar
    78    27    26    1
    79   160   159    1
    80    26    25   ar
    81    19    18    2
    82    79    80    1
    83    21    20    1
    84    21    23   ar
    85    17    20    1
    86    17    18    1
    87   138   140   ar
    88   138   137   ar
    89   132   133    1
    90   140   141   ar
    91   159   158    1
    92    80    81    1
    93    80    82    1
    94    25    23   ar
    95   137   136    1
    96   137   139   ar
    97   141   139   ar
    98   133   136    1
    99   133   134    1
   100    34    33    1
   101   157   158    1
   102   157   154    1
   103   177   176    1
   104    33    32    1
   105    33    35    1
   106   145   144    2
   107    32    29    1
   108   134   142   am
   109   134   135    2
   110    28    29    1
   111    55    56   ar
   112    55    53   ar
   113   142   143    1
   114   176   173    1
   115    56    54   ar
   116   156   155    2
   117   154   155    1
   118   154   153    1
   119   144   143    1
   120    29    30    1
   121   181   180    2
   122    53    52   ar
   123    67    66    2
   124   143   146    1
   125    30    31    2
   126    54    52   ar
   127    66    65    1
   128   175   174    2
   129   180   179    1
   130    52    51    1
   131   153   150   am
   132    65    64    1
   133   173   174    1
   134   173   172    1
   135   146   147    1
   136    51    48    1
   137   172   166   am
   138   182   179    1
   139   182   183    1
   140   150   151    2
   141   150   149    1
   142    39    38    2
   143   179   178    1
   144    60    59    2
   145    64    59   am
   146    43    45   ar
   147    43    41   ar
   148    38    37    1
   149    45    46   ar
   150    59    58    1
   151    40    41    1
   152    40    37    1
   153   152   149    1
   154   164   165    1
   155   166   167    2
   156   166   165    1
   157   183   185   ar
   158   183   184   ar
   159   149   148    1
   160    48    49    1
   161    48    47    1
   162    50    49    2
   163    41    42   ar
   164    37    36    1
   165    49    57   am
   166   185   187   ar
   167    57    58    1
   168    57    63    1
   169   184   186   ar
   170   165   168    1
   171    58    61    1
   172    63    62    1
   173    46    44   ar
   174    62    61    1
   175   168   169    1
   176    42    44   ar
   177   187   188   ar
   178   186   188   ar
   179   188   189    1
   180   169   170    1
   181   169   171    1
