@<TRIPOS>MOLECULE
tmp/1mnzA00.pdb
 157 149 0 0 0
SMALL
GASTEIGER

@<TRIPOS>ATOM
      1  N         36.5200   25.4590   63.2640 N.3    15  TRP15      -0.1241
      2  CA        37.6380   25.6350   62.3380 C.3    15  TRP15       0.1605
      3  C         38.7380   26.6000   62.8040 C.2    15  TRP15       0.2264
      4  O         39.7610   26.7550   62.1050 O.2    15  TRP15      -0.2867
      5  CB        37.0840   26.1700   60.9710 C.3    15  TRP15       0.0550
      6  CG        36.5440   27.5970   61.0870 C.ar   15  TRP15       0.0003
      7  CD1       37.2770   28.7420   60.8540 C.ar   15  TRP15       0.0946
      8  CD2       35.2200   28.0390   61.4560 C.ar   15  TRP15       0.0152
      9  NE1       36.5080   29.8820   61.0420 N.ar   15  TRP15      -0.2442
     10  CE2       35.2450   29.4820   61.4050 C.ar   15  TRP15       0.0810
     11  CE3       33.9810   27.4300   61.7740 C.ar   15  TRP15       0.0012
     12  CZ2       34.1150   30.2570   61.7140 C.ar   15  TRP15       0.0191
     13  CZ3       32.8880   28.1970   62.0580 C.ar   15  TRP15       0.0001
     14  CH2       32.9200   29.5960   62.0140 C.ar   15  TRP15       0.0015
     15  N         30.9410   25.0890   60.1590 N.3    53  HIS53      -0.1241
     16  CA        30.5300   24.7910   58.7960 C.3    53  HIS53       0.1621
     17  C         30.0430   23.3270   58.7430 C.2    53  HIS53       0.2264
     18  O         30.6310   22.4750   59.4370 O.2    53  HIS53      -0.2867
     19  CB        31.6910   24.9070   57.7750 C.3    53  HIS53       0.0745
     20  CG        32.3740   26.2550   57.7230 C.ar   53  HIS53       0.0817
     21  ND1       33.3650   26.6130   58.5830 N.ar   53  HIS53      -0.2268
     22  CD2       32.2340   27.3560   56.9000 C.ar   53  HIS53       0.1154
     23  CE1       33.7510   27.8570   58.3060 C.ar   53  HIS53       0.1986
     24  NE2       33.0880   28.3620   57.3060 N.ar   53  HIS53      -0.2212
     25  N         26.9250   27.5990   59.5030 N.3    89  THR89      -0.1203
     26  CA        27.1670   28.1070   58.1740 C.3    89  THR89       0.1994
     27  C         27.5130   26.9200   57.2230 C.2    89  THR89       0.2618
     28  O         27.6590   25.7710   57.6640 O.2    89  THR89      -0.2717
     29  CB        28.2660   29.2070   58.2280 C.3    89  THR89       0.1784
     30  OG1       28.4530   29.8470   56.9620 O.3    89  THR89      -0.2211
     31  CG2       29.6250   28.6690   58.7040 C.3    89  THR89       0.0376
     32  N         27.6270   27.2230   55.9430 N.am   90  THR90      -0.1952
     33  CA        27.9160   26.2500   54.9030 C.3    90  THR90       0.1897
     34  C         29.3440   26.4510   54.3770 C.2    90  THR90       0.2313
     35  O         29.7300   27.6320   54.1480 O.2    90  THR90      -0.2863
     36  CB        26.9340   26.3670   53.6980 C.3    90  THR90       0.1794
     37  OG1       25.6470   26.8320   54.1080 O.3    90  THR90      -0.2208
     38  CG2       26.8340   25.0450   52.9310 C.3    90  THR90       0.0378
     39  N         33.3280   26.9740   49.7450 N.3    93  PHE93      -0.1241
     40  CA        34.6000   27.4900   49.2530 C.3    93  PHE93       0.1605
     41  C         35.7630   26.5040   49.1710 C.2    93  PHE93       0.2264
     42  O         36.6810   26.7560   48.3500 O.2    93  PHE93      -0.2867
     43  CB        35.0490   28.7580   50.0930 C.3    93  PHE93       0.0534
     44  CG        35.0350   28.5060   51.6060 C.ar   93  PHE93      -0.0203
     45  CD1       36.1160   27.9530   52.2380 C.ar   93  PHE93      -0.0042
     46  CD2       33.8920   28.8420   52.3420 C.ar   93  PHE93      -0.0042
     47  CE1       36.0790   27.7340   53.6190 C.ar   93  PHE93      -0.0003
     48  CE2       33.8590   28.5930   53.7030 C.ar   93  PHE93      -0.0003
     49  CZ        34.9350   28.0350   54.3350 C.ar   93  PHE93      -0.0000
     50  N         24.9400   31.9880   58.9790 N.3   134  VAL134     -0.1245
     51  CA        25.8550   32.9090   58.2930 C.3   134  VAL134      0.1561
     52  C         26.1080   32.4420   56.8630 C.2   134  VAL134      0.2260
     53  O         26.1600   31.2360   56.5730 O.2   134  VAL134     -0.2867
     54  CB        27.1880   33.0530   59.0870 C.3   134  VAL134      0.0252
     55  CG1       28.3830   33.6250   58.2750 C.3   134  VAL134      0.0019
     56  CG2       26.9390   33.9200   60.3220 C.3   134  VAL134      0.0019
     57  N         29.1880   33.4410   54.0970 N.3   136  TRP136     -0.1241
     58  CA        30.4000   34.1260   53.6160 C.3   136  TRP136      0.1605
     59  C         30.6660   33.6420   52.2110 C.2   136  TRP136      0.2264
     60  O         31.1130   32.4930   51.9890 O.2   136  TRP136     -0.2867
     61  CB        31.6500   33.8190   54.4980 C.3   136  TRP136      0.0550
     62  CG        32.9100   34.3780   53.9010 C.ar  136  TRP136      0.0003
     63  CD1       33.2150   35.6790   53.5790 C.ar  136  TRP136      0.0946
     64  CD2       34.0940   33.6240   53.5190 C.ar  136  TRP136      0.0152
     65  NE1       34.4790   35.7910   53.0390 N.ar  136  TRP136     -0.2442
     66  CE2       35.0480   34.5300   52.9970 C.ar  136  TRP136      0.0810
     67  CE3       34.4520   32.2700   53.5950 C.ar  136  TRP136      0.0012
     68  CZ2       36.3180   34.1030   52.5380 C.ar  136  TRP136      0.0191
     69  CZ3       35.6900   31.8390   53.1470 C.ar  136  TRP136      0.0001
     70  CH2       36.6110   32.7670   52.6280 C.ar  136  TRP136      0.0015
     71  N         28.2620   37.8890   55.6610 N.3   180  GLU180     -0.1245
     72  CA        29.5990   38.2610   56.1380 C.3   180  GLU180      0.1567
     73  C         30.4270   38.8770   55.0140 C.2   180  GLU180      0.2260
     74  O         30.8890   38.1100   54.1380 O.2   180  GLU180     -0.2867
     75  CB        30.3260   37.0500   56.7140 C.3   180  GLU180      0.0388
     76  CG        31.7170   37.3970   57.2580 C.3   180  GLU180      0.1160
     77  CD        32.3370   36.2960   58.0840 C.2   180  GLU180      0.3649
     78  OE1       31.6130   35.3430   58.4720 O.co2 180  GLU180     -0.2457
     79  OE2       33.5860   36.3810   58.3360 O.co2 180  GLU180     -0.2457
     80  N         26.9760   39.9310   59.4380 N.3   214  ASN214     -0.1240
     81  CA        27.9820   39.3320   60.3140 C.3   214  ASN214      0.1653
     82  C         29.3470   39.9730   60.0130 C.2   214  ASN214      0.2266
     83  O         30.1910   39.3290   59.3470 O.2   214  ASN214     -0.2867
     84  CB        28.1040   37.8030   60.1970 C.3   214  ASN214      0.1155
     85  CG        29.0330   37.1970   61.2110 C.2   214  ASN214      0.2627
     86  OD1       28.9530   37.5670   62.3830 O.2   214  ASN214     -0.2716
     87  ND2       29.9550   36.2590   60.8270 N.am  214  ASN214     -0.0877
     88  N         33.2180   41.2150   60.1920 N.3   216  GLU216     -0.1245
     89  CA        34.4560   40.6730   60.8140 C.3   216  GLU216      0.1567
     90  C         35.4790   41.8240   60.9010 C.2   216  GLU216      0.2260
     91  O         35.7670   42.5220   59.9020 O.2   216  GLU216     -0.2867
     92  CB        35.0290   39.5040   59.9970 C.3   216  GLU216      0.0388
     93  CG        36.3290   38.9410   60.6150 C.3   216  GLU216      0.1160
     94  CD        36.9490   37.7280   59.9100 C.2   216  GLU216      0.3649
     95  OE1       36.2200   36.7670   59.6060 O.co2 216  GLU216     -0.2457
     96  OE2       38.1750   37.8180   59.6110 O.co2 216  GLU216     -0.2457
     97  N         38.2270   41.9470   58.2030 N.3   219  HIS219     -0.1241
     98  CA        37.7750   42.1080   56.8090 C.3   219  HIS219      0.1621
     99  C         37.5730   43.5970   56.4670 C.2   219  HIS219      0.2264
    100  O         38.0470   44.0560   55.4240 O.2   219  HIS219     -0.2867
    101  CB        36.5040   41.2920   56.5550 C.3   219  HIS219      0.0745
    102  CG        36.7800   39.7970   56.6110 C.ar  219  HIS219      0.0817
    103  ND1       35.8180   38.8120   56.4640 N.ar  219  HIS219     -0.2268
    104  CD2       37.9470   39.1020   56.8320 C.ar  219  HIS219      0.1154
    105  CE1       36.4150   37.6040   56.6060 C.ar  219  HIS219      0.1986
    106  NE2       37.7140   37.7110   56.8100 N.ar  219  HIS219     -0.2212
    107  N         32.0010   38.7780   64.0540 N.3   244  ASP244     -0.1239
    108  CA        33.2470   38.0030   64.1180 C.3   244  ASP244      0.1674
    109  C         34.3640   38.9270   64.6430 C.2   244  ASP244      0.2266
    110  O         34.6850   39.9780   64.0420 O.2   244  ASP244     -0.2867
    111  CB        33.7030   37.4330   62.7650 C.3   244  ASP244      0.1410
    112  CG        33.0570   36.1680   62.2900 C.2   244  ASP244      0.3668
    113  OD1       32.1750   35.6030   62.9150 O.co2 244  ASP244     -0.2456
    114  OD2       33.5110   35.6530   61.1960 O.co2 244  ASP244     -0.2456
    115  N         44.4120   38.2140   54.9480 N.3   254  ASP254     -0.1239
    116  CA        43.5420   38.0440   56.1190 C.3   254  ASP254      0.1674
    117  C         44.3060   37.2860   57.2110 C.2   254  ASP254      0.2266
    118  O         44.5210   36.0560   57.0800 O.2   254  ASP254     -0.2867
    119  CB        42.3120   37.3060   55.6530 C.3   254  ASP254      0.1410
    120  CG        41.2170   37.0690   56.6740 C.2   254  ASP254      0.3668
    121  OD1       40.9340   37.9850   57.4920 O.co2 254  ASP254     -0.2456
    122  OD2       40.5260   35.9990   56.5630 O.co2 254  ASP254     -0.2456
    123  N         43.5880   37.0040   60.7010 N.3   256  ASP256     -0.1239
    124  CA        42.7890   36.2910   61.7040 C.3   256  ASP256      0.1674
    125  C         43.5800   36.1480   63.0350 C.2   256  ASP256      0.2266
    126  O         43.5730   35.0870   63.6660 O.2   256  ASP256     -0.2867
    127  CB        42.2420   34.9580   61.1830 C.3   256  ASP256      0.1410
    128  CG        41.1640   35.0360   60.1080 C.2   256  ASP256      0.3668
    129  OD1       40.6350   36.1350   59.8280 O.co2 256  ASP256     -0.2456
    130  OD2       40.8430   33.9230   59.5390 O.co2 256  ASP256     -0.2456
    131  N         31.5850   36.2400   69.1050 N.3   284  HIS284     -0.1241
    132  CA        32.1340   35.1130   68.3730 C.3   284  HIS284      0.1621
    133  C         33.5560   35.4300   67.8620 C.2   284  HIS284      0.2264
    134  O         33.7330   36.4920   67.2470 O.2   284  HIS284     -0.2867
    135  CB        31.2240   34.7630   67.1970 C.3   284  HIS284      0.0745
    136  CG        31.6850   33.6190   66.3220 C.ar  284  HIS284      0.0817
    137  ND1       31.7040   32.2590   66.4890 N.ar  284  HIS284     -0.2268
    138  CD2       32.1340   33.7810   65.0440 C.ar  284  HIS284      0.1154
    139  CE1       32.1550   31.6110   65.4100 C.ar  284  HIS284      0.1986
    140  NE2       32.4310   32.5340   64.5340 N.ar  284  HIS284     -0.2212
    141  N         36.4880   34.4830   65.2330 N.3   286  ASP286     -0.1239
    142  CA        36.9230   33.8310   63.9890 C.3   286  ASP286      0.1674
    143  C         38.4100   34.1220   63.8510 C.2   286  ASP286      0.2266
    144  O         38.7990   35.1690   63.3060 O.2   286  ASP286     -0.2867
    145  CB        36.1240   34.3230   62.7770 C.3   286  ASP286      0.1410
    146  CG        36.5830   33.5650   61.5040 C.2   286  ASP286      0.3668
    147  OD1       37.3530   32.5920   61.6080 O.co2 286  ASP286     -0.2456
    148  OD2       36.1460   33.9980   60.3940 O.co2 286  ASP286     -0.2456
    149  N         42.7390   32.3990   63.9040 N.3   288  LYS288     -0.1245
    150  CA        43.6910   31.3010   63.6700 C.3   288  LYS288      0.1561
    151  C         44.8110   31.3860   64.6820 C.2   288  LYS288      0.2260
    152  O         45.6090   32.3470   64.6500 O.2   288  LYS288     -0.2867
    153  CB        44.3260   31.4540   62.2740 C.3   288  LYS288      0.0271
    154  CG        43.4030   31.0730   61.1500 C.3   288  LYS288      0.0035
    155  CD        44.0470   31.3220   59.7870 C.3   288  LYS288      0.0206
    156  CE        43.2240   30.7020   58.6710 C.3   288  LYS288      0.1093
    157  NZ        41.7770   31.1520   58.5490 N.3   288  LYS288     -0.1314
@<TRIPOS>BOND
     1    42    41    2
     2    41    40    1
     3    40    39    1
     4    40    43    1
     5    43    44    1
     6    44    45   ar
     7    44    46   ar
     8    60    59    2
     9    59    58    1
    10    45    47   ar
    11    46    48   ar
    12    68    70   ar
    13    68    66   ar
    14    70    69   ar
    15    38    36    1
    16    66    65   ar
    17    66    64   ar
    18    65    63   ar
    19    69    67   ar
    20    64    67   ar
    21    64    62   ar
    22    63    62   ar
    23    58    57    1
    24    58    61    1
    25    47    49   ar
    26    36    37    1
    27    36    33    1
    28    48    49   ar
    29    62    61    1
    30    74    73    2
    31    35    34    2
    32    34    33    1
    33    33    32    1
    34   115   116    1
    35    73    72    1
    36   100    99    2
    37   119   116    1
    38   119   120    1
    39    71    72    1
    40    32    27   am
    41   116   117    1
    42    72    75    1
    43   103   105   ar
    44   103   102   ar
    45    99    98    1
    46   101   102    1
    47   101    98    1
    48   122   120   ar
    49    53    52    2
    50   105   106   ar
    51   102   104   ar
    52   120   121   ar
    53    75    76    1
    54    98    97    1
    55   106   104   ar
    56    52    51    1
    57    22    24   ar
    58    22    20   ar
    59    30    29    1
    60   118   117    2
    61    27    28    2
    62    27    26    1
    63    76    77    1
    64    24    23   ar
    65    20    19    1
    66    20    21   ar
    67    19    16    1
    68    77    79   ar
    69    77    78   ar
    70    26    29    1
    71    26    25    1
    72    29    31    1
    73    55    54    1
    74    51    50    1
    75    51    54    1
    76    23    21   ar
    77   157   156    1
    78   156   155    1
    79    17    16    1
    80    17    18    2
    81    16    15    1
    82    54    56    1
    83    83    82    2
    84    80    81    1
    85   130   128   ar
    86    95    94   ar
    87    96    94   ar
    88   155   154    1
    89   129   128   ar
    90    91    90    2
    91    94    93    1
    92    92    93    1
    93    92    89    1
    94    82    81    1
    95   128   127    1
    96    88    89    1
    97    84    81    1
    98    84    85    1
    99   148   146   ar
   100   123   124    1
   101    89    90    1
   102    87    85   am
   103     7     9   ar
   104     7     6   ar
   105     5     6    1
   106     5     2    1
   107     9    10   ar
   108     6     8   ar
   109   154   153    1
   110   127   124    1
   111   114   112   ar
   112    85    86    2
   113    10     8   ar
   114    10    12   ar
   115     8    11   ar
   116   146   147   ar
   117   146   145    1
   118   124   125    1
   119    12    14   ar
   120    11    13   ar
   121    14    13   ar
   122     4     3    2
   123   153   150    1
   124   112   111    1
   125   112   113   ar
   126     2     3    1
   127     2     1    1
   128   111   108    1
   129   145   142    1
   130   125   126    2
   131   144   143    2
   132   150   149    1
   133   150   151    1
   134   143   142    1
   135   142   141    1
   136   110   109    2
   137   107   108    1
   138   108   109    1
   139   140   138   ar
   140   140   139   ar
   141   152   151    2
   142   138   136   ar
   143   139   137   ar
   144   136   137   ar
   145   136   135    1
   146   135   132    1
   147   134   133    2
   148   133   132    1
   149   132   131    1
