@<TRIPOS>MOLECULE
tmp/1mo8A00.pdb
 112 106 0 0 0
SMALL
GASTEIGER

@<TRIPOS>ATOM
      1  N         11.3370    2.2230    8.3110 N.3    48  ARG48      -0.1245
      2  CA        11.7250    1.6260    9.5870 C.3    48  ARG48       0.1563
      3  C         12.5570    0.3820    9.3410 C.2    48  ARG48       0.2260
      4  O         13.4660    0.0990   10.1230 O.2    48  ARG48      -0.2867
      5  CB        10.4890    1.2650   10.4340 C.3    48  ARG48       0.0307
      6  CG         9.4660    2.4090   10.4480 C.3    48  ARG48       0.0489
      7  CD         8.7140    2.5720   11.7790 C.3    48  ARG48       0.2205
      8  NE         8.4600    3.9890   12.1090 N.pl3  48  ARG48      -0.0865
      9  CZ         7.7450    4.4120   13.1630 C.cat  48  ARG48       0.5346
     10  NH1        7.0750    3.5610   13.9320 N.pl3  48  ARG48       0.1354
     11  NH2        7.7130    5.7000   13.4730 N.pl3  48  ARG48       0.1354
     12  N         10.1260   -3.0600   11.5770 N.3    68  ASP68      -0.1225
     13  CA         8.8920   -3.3570   12.2990 C.3    68  ASP68       0.1805
     14  C          7.8460   -3.9170   11.3360 C.2    68  ASP68       0.2598
     15  O          8.1110   -3.9840   10.1340 O.2    68  ASP68      -0.2718
     16  CB         8.4030   -2.1010   13.0300 C.3    68  ASP68       0.1424
     17  CG         7.6710   -2.4140   14.3320 C.2    68  ASP68       0.3668
     18  OD1        7.4140   -3.6000   14.6410 O.co2  68  ASP68      -0.2456
     19  OD2        7.4500   -1.4450   15.0890 O.co2  68  ASP68      -0.2456
     20  N          6.6740   -4.2980   11.8420 N.am   69  ALA69      -0.1966
     21  CA         5.6610   -5.1060   11.1630 C.3    69  ALA69       0.1728
     22  C          4.9960   -4.4880    9.9120 C.2    69  ALA69       0.2616
     23  O          3.9890   -5.0410    9.4620 O.2    69  ALA69      -0.2715
     24  CB         4.5970   -5.5010   12.1950 C.3    69  ALA69       0.0334
     25  N          5.5090   -3.3930    9.3290 N.am   70  SER70      -0.1950
     26  CA         5.0300   -2.8990    8.0420 C.3    70  SER70       0.1924
     27  C          5.5870   -3.7820    6.9170 C.2    70  SER70       0.2314
     28  O          4.9500   -4.7560    6.5210 O.2    70  SER70      -0.2863
     29  CB         5.2930   -1.3950    7.8440 C.3    70  SER70       0.2116
     30  OG         6.6700   -1.0420    7.8200 O.3    70  SER70      -0.2180
     31  N          1.0780    7.8350   15.1940 N.3   100  PHE100     -0.1241
     32  CA        -0.2760    7.4490   14.8020 C.3   100  PHE100      0.1605
     33  C         -1.1170    6.9980   15.9980 C.2   100  PHE100      0.2264
     34  O         -2.3310    7.2260   16.0280 O.2   100  PHE100     -0.2867
     35  CB        -0.2560    6.4250   13.6540 C.3   100  PHE100      0.0534
     36  CG         0.0240    4.9670   13.9500 C.ar  100  PHE100     -0.0203
     37  CD1       -0.9480    4.2010   14.6110 C.ar  100  PHE100     -0.0042
     38  CD2        1.1740    4.3300   13.4420 C.ar  100  PHE100     -0.0042
     39  CE1       -0.7860    2.8180   14.7540 C.ar  100  PHE100     -0.0003
     40  CE2        1.3200    2.9370   13.5600 C.ar  100  PHE100     -0.0003
     41  CZ         0.3270    2.1740   14.1950 C.ar  100  PHE100     -0.0000
     42  N         -3.1780    4.8980   17.8810 N.3   102  SER102     -0.1217
     43  CA        -4.0990    3.8720   17.4120 C.3   102  SER102      0.1889
     44  C         -5.3600    4.4540   16.7600 C.2   102  SER102      0.2288
     45  O         -6.0840    3.7170   16.0890 O.2   102  SER102     -0.2866
     46  CB        -4.4290    2.8950   18.5440 C.3   102  SER102      0.2089
     47  OG        -4.5860    3.5510   19.7870 O.3   102  SER102     -0.2183
     48  N         -4.1390    6.1190   12.2770 N.3   105  LYS105     -0.1231
     49  CA        -3.8280    5.1850   11.1670 C.3   105  LYS105      0.1693
     50  C         -2.9910    5.8300   10.0350 C.2   105  LYS105      0.2592
     51  O         -2.6870    5.2100    9.0140 O.2   105  LYS105     -0.2718
     52  CB        -5.1030    4.4930   10.6160 C.3   105  LYS105      0.0285
     53  CG        -6.1210    3.9540   11.6310 C.3   105  LYS105      0.0035
     54  CD        -5.9830    2.4980   12.1260 C.3   105  LYS105      0.0206
     55  CE        -6.2300    1.4090   11.0670 C.3   105  LYS105      0.1093
     56  NZ        -7.0180    0.2640   11.6000 N.3   105  LYS105     -0.1314
     57  N         -2.5750    7.0780   10.2210 N.am  106  TYR106     -0.1962
     58  CA        -1.5690    7.7830    9.4320 C.3   106  TYR106      0.1771
     59  C         -0.4330    8.2320   10.3350 C.2   106  TYR106      0.2619
     60  O         -0.6430    8.4640   11.5240 O.2   106  TYR106     -0.2715
     61  CB        -2.1610    8.9740    8.6510 C.3   106  TYR106      0.0574
     62  CG        -2.2000   10.3130    9.3910 C.ar  106  TYR106     -0.0198
     63  CD1       -3.2780   10.6280   10.2400 C.ar  106  TYR106     -0.0009
     64  CD2       -1.1490   11.2450    9.2440 C.ar  106  TYR106     -0.0009
     65  CE1       -3.2960   11.8370   10.9610 C.ar  106  TYR106      0.0417
     66  CE2       -1.1500   12.4490    9.9730 C.ar  106  TYR106      0.0417
     67  CZ        -2.2250   12.7470   10.8330 C.ar  106  TYR106      0.1957
     68  OH        -2.2100   13.9150   11.5280 O.3   106  TYR106     -0.2866
     69  N          0.7520    8.4340    9.7650 N.am  107  GLN107     -0.1977
     70  CA         1.8150    9.2330   10.3380 C.3   107  GLN107      0.1601
     71  C          2.1740   10.3390    9.3600 C.2   107  GLN107      0.2287
     72  O          1.9910   10.2100    8.1480 O.2   107  GLN107     -0.2864
     73  CB         3.0690    8.4060   10.6330 C.3   107  GLN107      0.0394
     74  CG         3.0100    7.7010   11.9890 C.3   107  GLN107      0.0908
     75  CD         4.4180    7.4100   12.4950 C.2   107  GLN107      0.2608
     76  OE1        4.9760    6.3590   12.2000 O.2   107  GLN107     -0.2717
     77  NE2        5.0320    8.3490   13.1980 N.am  107  GLN107     -0.0878
     78  N          2.5120    8.7260    5.6050 N.3   126  LYS126     -0.1231
     79  CA         2.4140    7.2830    5.4100 C.3   126  LYS126      0.1693
     80  C          1.2100    6.8270    6.2330 C.2   126  LYS126      0.2593
     81  O          0.7650    7.5820    7.1000 O.2   126  LYS126     -0.2718
     82  CB         3.7140    6.6110    5.8900 C.3   126  LYS126      0.0285
     83  CG         4.0510    5.3390    5.0920 C.3   126  LYS126      0.0035
     84  CD         4.7320    4.2590    5.9470 C.3   126  LYS126      0.0206
     85  CE         6.0080    4.7870    6.6150 C.3   126  LYS126      0.1093
     86  NZ         6.5080    3.8910    7.6740 N.3   126  LYS126     -0.1314
     87  N          0.6840    5.6250    6.0170 N.am  127  GLY127     -0.1942
     88  CA        -0.5270    5.1900    6.7000 C.3   127  GLY127      0.2014
     89  C         -1.4990    4.4960    5.7690 C.2   127  GLY127      0.2638
     90  O         -1.2560    4.4280    4.5550 O.2   127  GLY127     -0.2714
     91  N         -2.5910    4.0230    6.3750 N.am  128  ALA128     -0.1977
     92  CA        -3.5690    3.1660    5.7260 C.3   128  ALA128      0.1597
     93  C         -4.1790    3.8940    4.5210 C.2   128  ALA128      0.2287
     94  O         -4.6760    5.0100    4.6970 O.2   128  ALA128     -0.2864
     95  CB        -4.6680    2.7220    6.6990 C.3   128  ALA128      0.0319
     96  N         -2.3850   -4.5910    6.5740 N.3   168  GLU168     -0.1245
     97  CA        -1.0670   -4.1620    6.1080 C.3   168  GLU168      0.1567
     98  C         -0.6450   -5.0060    4.8960 C.2   168  GLU168      0.2260
     99  O         -0.0670   -6.0880    5.0330 O.2   168  GLU168     -0.2867
    100  CB        -0.0170   -4.2070    7.2380 C.3   168  GLU168      0.0388
    101  CG         0.2320   -2.8310    7.8750 C.3   168  GLU168      0.1160
    102  CD         0.9580   -1.9010    6.9030 C.2   168  GLU168      0.3649
    103  OE1        0.2830   -1.2560    6.0790 O.co2 168  GLU168     -0.2457
    104  OE2        2.2110   -1.8750    6.9020 O.co2 168  GLU168     -0.2457
    105  N          0.1280    0.1790    1.3200 N.3   171  LEU171     -0.1245
    106  CA         0.3160    1.4380    2.0430 C.3   171  LEU171      0.1561
    107  C          0.0810    2.6160    1.1080 C.2   171  LEU171      0.2260
    108  O          0.0080    2.4580   -0.1110 O.2   171  LEU171     -0.2867
    109  CB         1.7240    1.5050    2.6730 C.3   171  LEU171      0.0270
    110  CG         1.6850    1.1130    4.1560 C.3   171  LEU171      0.0019
    111  CD1        3.0400    0.5810    4.6290 C.3   171  LEU171      0.0001
    112  CD2        1.2820    2.2770    5.0580 C.3   171  LEU171      0.0001
@<TRIPOS>BOND
     1   108   107    2
     2   107   106    1
     3   105   106    1
     4   106   109    1
     5   109   110    1
     6   110   111    1
     7   110   112    1
     8    93    94    2
     9    93    92    1
    10    90    89    2
    11    98    99    2
    12    98    97    1
    13    83    82    1
    14    83    84    1
    15    79    78    1
    16    79    82    1
    17    79    80    1
    18    92    91    1
    19    92    95    1
    20    89    91   am
    21    89    88    1
    22    84    85    1
    23    87    80   am
    24    87    88    1
    25   103   102   ar
    26    97    96    1
    27    97   100    1
    28    80    81    2
    29    28    27    2
    30    85    86    1
    31   104   102   ar
    32   102   101    1
    33    27    26    1
    34   100   101    1
    35    30    29    1
    36    29    26    1
    37    26    25    1
    38    72    71    2
    39     1     2    1
    40    61    62    1
    41    61    58    1
    42    51    50    2
    43    64    62   ar
    44    64    66   ar
    45    25    22   am
    46     3     2    1
    47     3     4    2
    48    71    70    1
    49    62    63   ar
    50    58    57    1
    51    58    59    1
    52    23    22    2
    53     2     5    1
    54    69    59   am
    55    69    70    1
    56    22    21    1
    57    66    67   ar
    58    50    57   am
    59    50    49    1
    60    15    14    2
    61    63    65   ar
    62    59    60    2
    63    70    73    1
    64     5     6    1
    65     6     7    1
    66    52    49    1
    67    52    53    1
    68    73    74    1
    69    67    65   ar
    70    67    68    1
    71    55    56    1
    72    55    54    1
    73    21    20    1
    74    21    24    1
    75    49    48    1
    76    14    20   am
    77    14    13    1
    78    12    13    1
    79    53    54    1
    80     7     8    1
    81    74    75    1
    82     8     9    2
    83    76    75    2
    84    13    16    1
    85    75    77   am
    86    16    17    1
    87     9    11    1
    88     9    10    1
    89    38    40   ar
    90    38    36   ar
    91    40    41   ar
    92    35    36    1
    93    35    32    1
    94    36    37   ar
    95    41    39   ar
    96    17    18   ar
    97    17    19   ar
    98    37    39   ar
    99    32    31    1
   100    32    33    1
   101    33    34    2
   102    45    44    2
   103    44    43    1
   104    43    42    1
   105    43    46    1
   106    46    47    1
