@<TRIPOS>MOLECULE
tmp/1moqA00.pdb
 128 121 0 0 0
SMALL
GASTEIGER

@<TRIPOS>ATOM
      1  N         28.3510   24.3680   -3.7420 N.3    58  CYS58      -0.1221
      2  CA        27.2400   23.4870   -4.1120 C.3    58  CYS58       0.1808
      3  C         26.9960   22.4110   -3.0190 C.2    58  CYS58       0.2602
      4  O         27.9300   22.1740   -2.2540 O.2    58  CYS58      -0.2717
      5  CB        27.6680   22.6620   -5.3620 C.3    58  CYS58       0.0970
      6  SG        27.9220   23.7320   -6.8240 S.3    58  CYS58      -0.0800
      7  N         25.8560   21.7560   -3.0360 N.am   59  GLY59      -0.1942
      8  CA        25.6290   20.6410   -2.1240 C.3    59  GLY59       0.2014
      9  C         25.8750   21.0200   -0.6470 C.2    59  GLY59       0.2640
     10  O         25.4040   22.0400   -0.1600 O.2    59  GLY59      -0.2714
     11  N         26.5530   20.0950    0.0340 N.am   60  THR60      -0.1936
     12  CA        26.7860   20.2800    1.5000 C.3    60  THR60       0.2028
     13  C         27.6480   21.4990    1.7370 C.2    60  THR60       0.2642
     14  O         27.5170   22.1740    2.7750 O.2    60  THR60      -0.2714
     15  CB        27.3380   18.9700    2.0860 C.3    60  THR60       0.1808
     16  OG1       26.2620   18.0390    2.1720 O.3    60  THR60      -0.2208
     17  CG2       27.9600   19.1640    3.4720 C.3    60  THR60       0.0379
     18  N         28.5070   21.8650    0.7560 N.am   61  SER61      -0.1949
     19  CA        29.3640   23.0490    0.9290 C.3    61  SER61       0.1924
     20  C         28.5350   24.3110    0.9150 C.2    61  SER61       0.2314
     21  O         28.8870   25.3180    1.5360 O.2    61  SER61      -0.2863
     22  CB        30.5080   23.0840   -0.0790 C.3    61  SER61       0.2116
     23  OG        31.3880   21.9980    0.1040 O.3    61  SER61      -0.2180
     24  N         33.6610   27.4050   -1.1890 N.3   104  LEU104     -0.1231
     25  CA        33.7620   26.2970   -0.2360 C.3   104  LEU104      0.1693
     26  C         33.6570   25.0230   -1.0770 C.2   104  LEU104      0.2593
     27  O         32.6730   24.9160   -1.8280 O.2   104  LEU104     -0.2718
     28  CB        32.5790   26.3070    0.7470 C.3   104  LEU104      0.0284
     29  CG        32.7100   27.4020    1.8070 C.3   104  LEU104      0.0019
     30  CD1       31.3710   27.7630    2.3980 C.3   104  LEU104      0.0001
     31  CD2       33.6980   26.8990    2.8640 C.3   104  LEU104      0.0001
     32  N         34.5750   24.1080   -0.9150 N.am  105  SER105     -0.1938
     33  CA        34.5070   22.8800   -1.6790 C.3   105  SER105      0.2055
     34  C         35.3280   21.7970   -1.0370 C.2   105  SER105      0.2643
     35  O         36.5310   22.0510   -0.7900 O.2   105  SER105     -0.2714
     36  CB        35.0540   23.2250   -3.1030 C.3   105  SER105      0.2130
     37  OG        35.0790   22.0020   -3.8520 O.3   105  SER105     -0.2179
     38  N         34.7700   20.6100   -0.7890 N.am  106  GLN106     -0.1963
     39  CA        35.6260   19.5530   -0.2480 C.3   106  GLN106      0.1733
     40  C         36.7160   19.2070   -1.2670 C.2   106  GLN106      0.2613
     41  O         37.9140   19.1510   -0.9880 O.2   106  GLN106     -0.2715
     42  CB        34.8050   18.2840    0.0640 C.3   106  GLN106      0.0408
     43  CG        35.6050   17.2250    0.7830 C.3   106  GLN106      0.0908
     44  CD        36.5410   16.4000   -0.0690 C.2   106  GLN106      0.2608
     45  OE1       37.6340   16.0120    0.3780 O.2   106  GLN106     -0.2717
     46  NE2       36.1240   16.0410   -1.2830 N.am  106  GLN106     -0.0878
     47  N         36.2550   18.9250   -2.5020 N.am  107  SER107     -0.2003
     48  CA        37.1460   18.4980   -3.5730 C.3   107  SER107      0.1610
     49  C         37.9750   19.5810   -4.2580 C.3   107  SER107      0.2063
     50  O         39.0530   19.1750   -4.7370 O.3   107  SER107     -0.2184
     51  CB        36.2900   17.7520   -4.6700 C.3   107  SER107      0.2063
     52  OG        35.4820   18.7430   -5.3140 O.3   107  SER107     -0.2184
     53  N         34.6830   20.9200   -8.1700 N.3   110  THR110     -0.1218
     54  CA        33.2970   21.0130   -8.6280 C.3   110  THR110      0.1862
     55  C         33.1910   22.0090   -9.7800 C.2   110  THR110      0.2287
     56  O         33.5690   23.1560   -9.5920 O.2   110  THR110     -0.2866
     57  CB        32.4040   21.4200   -7.4250 C.3   110  THR110      0.1770
     58  OG1       32.6360   20.3390   -6.4900 O.3   110  THR110     -0.2211
     59  CG2       30.9410   21.4640   -7.8100 C.3   110  THR110      0.0375
     60  N         31.3390   25.4360   -9.0450 N.3   113  THR113     -0.1218
     61  CA        32.0650   26.2940   -8.0980 C.3   113  THR113      0.1862
     62  C         33.2970   26.9080   -8.8010 C.2   113  THR113      0.2287
     63  O         33.5680   28.0930   -8.6740 O.2   113  THR113     -0.2866
     64  CB        32.4180   25.5130   -6.8140 C.3   113  THR113      0.1770
     65  OG1       31.2120   24.8680   -6.3550 O.3   113  THR113     -0.2211
     66  CG2       32.9090   26.4080   -5.6750 C.3   113  THR113      0.0375
     67  N         30.6930    9.2680   -0.2000 N.3   157  VAL157     -0.1231
     68  CA        30.1800   10.2100   -1.2120 C.3   157  VAL157      0.1692
     69  C         29.5120   11.3960   -0.5680 C.2   157  VAL157      0.2592
     70  O         29.6100   12.5210   -1.0900 O.2   157  VAL157     -0.2718
     71  CB        29.2780    9.5080   -2.2470 C.3   157  VAL157      0.0266
     72  CG1       28.3700   10.5200   -2.9250 C.3   157  VAL157      0.0020
     73  CG2       30.1740    8.7800   -3.2550 C.3   157  VAL157      0.0020
     74  N         28.8450   11.1950    0.5590 N.am  158  ALA158     -0.1966
     75  CA        28.1970   12.2740    1.3070 C.3   158  ALA158      0.1728
     76  C         29.2210   12.9050    2.2700 C.2   158  ALA158      0.2616
     77  O         29.9180   12.1710    2.9810 O.2   158  ALA158     -0.2715
     78  CB        26.9940   11.7450    2.0720 C.3   158  ALA158      0.0334
     79  N         29.3710   14.1980    2.3260 N.am  159  SER159     -0.1950
     80  CA        30.3430   14.8990    3.1740 C.3   159  SER159      0.1924
     81  C         29.9200   14.9560    4.6530 C.2   159  SER159      0.2314
     82  O         28.7930   15.3050    4.9410 O.2   159  SER159     -0.2863
     83  CB        30.5860   16.3240    2.6700 C.3   159  SER159      0.2116
     84  OG        31.2110   17.1820    3.5720 O.3   159  SER159     -0.2180
     85  N         20.2190   11.8340    0.8430 N.3   246  GLU246     -0.1245
     86  CA        21.4030   11.2350    0.2690 C.3   246  GLU246      0.1567
     87  C         21.5750    9.7530    0.5110 C.2   246  GLU246      0.2260
     88  O         21.7750    8.9760   -0.4200 O.2   246  GLU246     -0.2867
     89  CB        22.7160   11.9050    0.7620 C.3   246  GLU246      0.0388
     90  CG        22.9320   13.3370    0.2250 C.3   246  GLU246      0.1160
     91  CD        24.1690   13.9560    0.8500 C.2   246  GLU246      0.3649
     92  OE1       24.2680   13.9700    2.1060 O.co2 246  GLU246     -0.2457
     93  OE2       25.0700   14.4480    0.1310 O.co2 246  GLU246     -0.2457
     94  N         24.4860    9.4200   -6.9400 N.3   359  LEU359     -0.1231
     95  CA        25.2620   10.5790   -6.4690 C.3   359  LEU359      0.1693
     96  C         26.7450   10.3730   -6.7480 C.2   359  LEU359      0.2592
     97  O         27.2210    9.2530   -6.9130 O.2   359  LEU359     -0.2718
     98  CB        25.0180   10.8300   -4.9580 C.3   359  LEU359      0.0284
     99  CG        23.5330   10.9780   -4.6030 C.3   359  LEU359      0.0019
    100  CD1       23.4000   11.2190   -3.0910 C.3   359  LEU359      0.0001
    101  CD2       22.8880   12.1030   -5.3930 C.3   359  LEU359      0.0001
    102  N         27.4820   11.5090   -6.8050 N.am  360  ALA360     -0.1966
    103  CA        28.9160   11.4280   -7.0760 C.3   360  ALA360      0.1728
    104  C         29.6840   12.1660   -5.9610 C.2   360  ALA360      0.2616
    105  O         29.1090   13.1060   -5.3960 O.2   360  ALA360     -0.2715
    106  CB        29.1900   12.2100   -8.3940 C.3   360  ALA360      0.0334
    107  N         30.9200   11.7420   -5.7450 N.am  361  LYS361     -0.1963
    108  CA        31.7370   12.4590   -4.7410 C.3   361  LYS361      0.1728
    109  C         31.9040   13.9140   -5.1310 C.2   361  LYS361      0.2617
    110  O         31.8420   14.8320   -4.2980 O.2   361  LYS361     -0.2715
    111  CB        33.0970   11.7940   -4.5400 C.3   361  LYS361      0.0311
    112  CG        33.9460   12.4810   -3.4670 C.3   361  LYS361      0.0038
    113  CD        33.2190   12.4940   -2.1350 C.3   361  LYS361      0.0206
    114  CE        34.0350   13.1260   -1.0120 C.3   361  LYS361      0.1093
    115  NZ        33.1500   13.3420    0.1670 N.3   361  LYS361     -0.1314
    116  N         32.1540   14.1840   -6.4330 N.am  362  SER362     -0.1936
    117  CA        32.2630   15.5600   -6.9250 C.3   362  SER362      0.2055
    118  C         31.8020   15.5790   -8.4010 C.2   362  SER362      0.2642
    119  O         32.1140   14.6460   -9.1420 O.2   362  SER362     -0.2714
    120  CB        33.6120   16.2270   -6.7670 C.3   362  SER362      0.2130
    121  OG        34.6300   15.5040   -7.3890 O.3   362  SER362     -0.2179
    122  N         31.0740   16.6100   -8.7350 N.am  363  VAL363     -0.1977
    123  CA        30.5420   16.7460  -10.1230 C.3   363  VAL363      0.1596
    124  C         31.5460   17.6890  -10.8090 C.2   363  VAL363      0.2287
    125  O         31.4790   18.9070  -10.6920 O.2   363  VAL363     -0.2864
    126  CB        29.1310   17.3250  -10.0330 C.3   363  VAL363      0.0276
    127  CG1       28.5520   17.6020  -11.4130 C.3   363  VAL363      0.0022
    128  CG2       28.2370   16.3710   -9.2310 C.3   363  VAL363      0.0022
@<TRIPOS>BOND
     1   127   126    1
     2   124   125    2
     3   124   123    1
     4   123   126    1
     5   123   122    1
     6   126   128    1
     7    55    56    2
     8    55    54    1
     9   119   118    2
    10    60    61    1
    11    62    63    2
    12    62    61    1
    13   122   118   am
    14    54    53    1
    15    54    57    1
    16   118   117    1
    17   106   103    1
    18    61    64    1
    19    59    57    1
    20    57    58    1
    21   121   120    1
    22   103   102    1
    23   103   104    1
    24    94    95    1
    25   117   120    1
    26   117   116    1
    27    97    96    2
    28     6     5    1
    29    64    65    1
    30    64    66    1
    31   102    96   am
    32    96    95    1
    33    95    98    1
    34   116   109   am
    35   104   107   am
    36   104   105    2
    37   107   108    1
    38   101    99    1
    39     5     2    1
    40    52    51    1
    41   109   108    1
    42   109   110    2
    43    98    99    1
    44   108   111    1
    45    50    49    1
    46    51    48    1
    47    99   100    1
    48   111   112    1
    49    49    48    1
    50     2     1    1
    51     2     3    1
    52    37    36    1
    53    48    47    1
    54   112   113    1
    55    73    71    1
    56    36    33    1
    57     7     3   am
    58     7     8    1
    59     3     4    2
    60    72    71    1
    61    47    40   am
    62    71    68    1
    63   113   114    1
    64     8     9    1
    65    27    26    2
    66    33    34    1
    67    33    32    1
    68    46    44   am
    69    40    41    2
    70    40    39    1
    71    68    69    1
    72    68    67    1
    73    24    25    1
    74    70    69    2
    75    26    32   am
    76    26    25    1
    77    34    35    2
    78    34    38   am
    79   114   115    1
    80    38    39    1
    81     9    10    2
    82     9    11   am
    83    69    74   am
    84    88    87    2
    85    39    42    1
    86    25    28    1
    87    22    23    1
    88    22    19    1
    89    44    45    2
    90    44    43    1
    91    11    12    1
    92    42    43    1
    93    93    91   ar
    94    90    89    1
    95    90    91    1
    96    86    87    1
    97    86    89    1
    98    86    85    1
    99    74    75    1
   100    28    29    1
   101    18    19    1
   102    18    13   am
   103    91    92   ar
   104    20    19    1
   105    20    21    2
   106    75    78    1
   107    75    76    1
   108    12    13    1
   109    12    15    1
   110    13    14    2
   111    29    30    1
   112    29    31    1
   113    15    16    1
   114    15    17    1
   115    76    79   am
   116    76    77    2
   117    79    80    1
   118    83    80    1
   119    83    84    1
   120    80    81    1
   121    81    82    2
