@<TRIPOS>MOLECULE
tmp/1moqA01.pdb
 104 98 0 0 0
SMALL
GASTEIGER

@<TRIPOS>ATOM
      1  N         15.8150   27.5820   12.8700 N.3   230  ARG230     -0.1245
      2  CA        15.7320   29.0340   12.7860 C.3   230  ARG230      0.1563
      3  C         17.1560   29.5870   12.8510 C.2   230  ARG230      0.2260
      4  O         18.0050   29.0420   13.5720 O.2   230  ARG230     -0.2867
      5  CB        14.9240   29.6290   13.9640 C.3   230  ARG230      0.0307
      6  CG        15.0930   31.1400   14.1020 C.3   230  ARG230      0.0489
      7  CD        14.6030   31.6210   15.4700 C.3   230  ARG230      0.2205
      8  NE        13.1450   31.6700   15.5290 N.pl3 230  ARG230     -0.0865
      9  CZ        12.4820   32.0450   16.6330 C.cat 230  ARG230      0.5346
     10  NH1       13.1860   32.3870   17.7280 N.pl3 230  ARG230      0.1354
     11  NH2       11.1700   32.0950   16.6180 N.pl3 230  ARG230      0.1354
     12  N         20.9740   30.4340   12.6140 N.3   232  ASP232     -0.1225
     13  CA        22.1450   29.6220   12.3140 C.3   232  ASP232      0.1805
     14  C         21.8920   28.1230   12.3870 C.2   232  ASP232      0.2597
     15  O         22.7970   27.3690   12.0020 O.2   232  ASP232     -0.2718
     16  CB        23.3720   30.0930   13.1000 C.3   232  ASP232      0.1424
     17  CG        23.1530   29.9980   14.6170 C.2   232  ASP232      0.3668
     18  OD1       22.2880   29.2330   15.0960 O.co2 232  ASP232     -0.2456
     19  OD2       23.8940   30.7330   15.3260 O.co2 232  ASP232     -0.2456
     20  N         20.7030   27.6880   12.8320 N.am  233  GLN233     -0.1979
     21  CA        20.3820   26.2600   12.8430 C.3   233  GLN233      0.1601
     22  C         19.5240   25.8610   11.5970 C.2   233  GLN233      0.2287
     23  O         19.3240   24.6910   11.3350 O.2   233  GLN233     -0.2864
     24  CB        19.6540   25.8170   14.1170 C.3   233  GLN233      0.0394
     25  CG        20.5180   26.0960   15.3830 C.3   233  GLN233      0.0908
     26  CD        21.5810   25.0480   15.5470 C.2   233  GLN233      0.2608
     27  OE1       21.6680   24.0480   14.8130 O.2   233  GLN233     -0.2717
     28  NE2       22.4900   25.1930   16.5260 N.am  233  GLN233     -0.0878
     29  N         17.4920   22.3830   17.6850 N.3   278  ALA278     -0.1231
     30  CA        17.8970   23.3520   18.7020 C.3   278  ALA278      0.1679
     31  C         17.1320   24.6300   18.8310 C.2   278  ALA278      0.2434
     32  O         17.7120   25.7430   18.7740 O.2   278  ALA278     -0.2733
     33  CB        19.3800   23.6980   18.4160 C.3   278  ALA278      0.0304
     34  N         15.8260   24.5490   19.0700 N.am  279  PRO279     -0.2718
     35  CA        15.0050   25.7210   19.2270 C.3   279  PRO279      0.1535
     36  C         15.1240   26.3590   20.6290 C.2   279  PRO279      0.2598
     37  O         15.3710   25.5920   21.5730 O.2   279  PRO279     -0.2715
     38  CB        13.5430   25.1990   19.1200 C.3   279  PRO279      0.0310
     39  CG        13.7200   23.7850   19.6610 C.3   279  PRO279      0.0237
     40  CD        15.0930   23.2810   19.2110 C.3   279  PRO279      0.0939
     41  N         14.8700   27.6520   20.7200 N.am  280  ASN280     -0.1973
     42  CA        14.7710   28.2630   22.0530 C.3   280  ASN280      0.1688
     43  C         13.3250   28.0370   22.4960 C.2   280  ASN280      0.2292
     44  O         12.4770   27.4720   21.7640 O.2   280  ASN280     -0.2864
     45  CB        15.1580   29.7290   22.0270 C.3   280  ASN280      0.1181
     46  CG        14.2100   30.6420   21.3170 C.2   280  ASN280      0.2629
     47  OD1       13.1370   30.2710   20.8570 O.2   280  ASN280     -0.2716
     48  ND2       14.5660   31.9240   21.2150 N.am  280  ASN280     -0.0877
     49  N         18.8460   21.6030   23.9060 N.3   306  ASP306     -0.1239
     50  CA        19.6970   21.7430   25.1110 C.3   306  ASP306      0.1674
     51  C         18.8910   21.2500   26.3470 C.2   306  ASP306      0.2266
     52  O         17.7970   21.7590   26.6360 O.2   306  ASP306     -0.2867
     53  CB        19.9850   23.2260   25.2440 C.3   306  ASP306      0.1410
     54  CG        21.0120   23.6420   26.3050 C.2   306  ASP306      0.3668
     55  OD1       21.3310   22.7890   27.1380 O.co2 306  ASP306     -0.2456
     56  OD2       21.4580   24.8050   26.1960 O.co2 306  ASP306     -0.2456
     57  N         17.2560   23.7420   28.5890 N.3   309  ALA309     -0.1245
     58  CA        16.0230   24.4790   28.2530 C.3   309  ALA309      0.1562
     59  C         14.8570   23.9520   29.0800 C.2   309  ALA309      0.2260
     60  O         13.8290   24.6280   29.2050 O.2   309  ALA309     -0.2867
     61  CB        15.7170   24.2720   26.7690 C.3   309  ALA309      0.0290
     62  N         24.3260   21.0500   27.1770 N.3   324  HIS324     -0.1226
     63  CA        24.4560   22.4670   26.8890 C.3   324  HIS324      0.1752
     64  C         25.8220   22.6810   26.1910 C.2   324  HIS324      0.2595
     65  O         26.7890   22.0120   26.5730 O.2   324  HIS324     -0.2718
     66  CB        24.5440   23.2330   28.2290 C.3   324  HIS324      0.0759
     67  CG        24.7040   24.6800   28.0000 C.ar  324  HIS324      0.0818
     68  ND1       23.7150   25.4880   27.4900 N.ar  324  HIS324     -0.2268
     69  CD2       25.7850   25.4930   28.2190 C.ar  324  HIS324      0.1154
     70  CE1       24.1530   26.7300   27.3970 C.ar  324  HIS324      0.1986
     71  NE2       25.3970   26.7520   27.8300 N.ar  324  HIS324     -0.2212
     72  N         25.8900   23.5170   25.1680 N.am  325  VAL325     -0.1980
     73  CA        27.1490   23.7820   24.4840 C.3   325  VAL325      0.1595
     74  C         27.2290   25.2820   24.2660 C.2   325  VAL325      0.2287
     75  O         26.2480   26.0070   24.4220 O.2   325  VAL325     -0.2864
     76  CB        27.3650   23.0830   23.1260 C.3   325  VAL325      0.0276
     77  CG1       27.3530   21.5850   23.3160 C.3   325  VAL325      0.0022
     78  CG2       26.2700   23.4550   22.1120 C.3   325  VAL325      0.0022
     79  N         27.0320   28.5740   22.4450 N.3   327  GLU327     -0.1245
     80  CA        26.1980   29.0040   21.3440 C.3   327  GLU327      0.1567
     81  C         26.9630   29.1520   20.0350 C.2   327  GLU327      0.2260
     82  O         26.4730   28.7690   18.9700 O.2   327  GLU327     -0.2867
     83  CB        25.4760   30.3010   21.7080 C.3   327  GLU327      0.0388
     84  CG        24.4170   30.7480   20.7250 C.3   327  GLU327      0.1160
     85  CD        23.2850   29.7500   20.5730 C.2   327  GLU327      0.3649
     86  OE1       22.9330   28.9910   21.5220 O.co2 327  GLU327     -0.2457
     87  OE2       22.6700   29.7180   19.4910 O.co2 327  GLU327     -0.2457
     88  N         27.3090   25.8610   18.4260 N.3   330  ALA330     -0.1245
     89  CA        26.1070   25.0140   18.4440 C.3   330  ALA330      0.1562
     90  C         25.7200   24.4430   17.0670 C.2   330  ALA330      0.2260
     91  O         25.3430   23.2840   16.9490 O.2   330  ALA330     -0.2867
     92  CB        24.9450   25.6970   19.1310 C.3   330  ALA330      0.0290
     93  N         25.2470   20.4810   16.6040 N.3   334  TYR334     -0.1241
     94  CA        23.9590   19.8550   16.2500 C.3   334  TYR334      0.1605
     95  C         23.9740   19.1540   14.8930 C.2   334  TYR334      0.2264
     96  O         23.0080   18.4830   14.5860 O.2   334  TYR334     -0.2867
     97  CB        22.8510   20.9120   16.3140 C.3   334  TYR334      0.0534
     98  CG        22.3540   21.0280   17.7580 C.ar  334  TYR334     -0.0201
     99  CD1       22.9680   21.8950   18.6560 C.ar  334  TYR334     -0.0009
    100  CD2       21.3100   20.2250   18.1780 C.ar  334  TYR334     -0.0009
    101  CE1       22.5140   21.9630   19.9710 C.ar  334  TYR334      0.0417
    102  CE2       20.8540   20.2890   19.4770 C.ar  334  TYR334      0.0417
    103  CZ        21.4810   21.1730   20.3610 C.ar  334  TYR334      0.1957
    104  OH        21.0000   21.2040   21.6470 O.3   334  TYR334     -0.2866
@<TRIPOS>BOND
     1    23    22    2
     2    22    21    1
     3    15    14    2
     4    13    14    1
     5    13    12    1
     6    13    16    1
     7    14    20   am
     8     2     3    1
     9     2     1    1
    10     2     5    1
    11    20    21    1
    12    21    24    1
    13     3     4    2
    14    16    17    1
    15     5     6    1
    16     6     7    1
    17    24    25    1
    18    96    95    2
    19    17    18   ar
    20    17    19   ar
    21    27    26    2
    22    95    94    1
    23    25    26    1
    24     7     8    1
    25     8     9    2
    26    26    28   am
    27    94    97    1
    28    94    93    1
    29    97    98    1
    30    11     9    1
    31     9    10    1
    32    91    90    2
    33    90    89    1
    34    29    30    1
    35    98   100   ar
    36    98    99   ar
    37   100   102   ar
    38    33    30    1
    39    88    89    1
    40    89    92    1
    41    99   101   ar
    42    30    31    1
    43    32    31    2
    44    31    34   am
    45    82    81    2
    46    34    40    1
    47    34    35    1
    48    38    35    1
    49    38    39    1
    50    40    39    1
    51    35    36    1
    52   102   103   ar
    53    87    85   ar
    54   101   103   ar
    55    81    80    1
    56   103   104    1
    57    85    84    1
    58    85    86   ar
    59    36    41   am
    60    36    37    2
    61    41    42    1
    62    84    83    1
    63    47    46    2
    64    48    46   am
    65    46    45    1
    66    80    83    1
    67    80    79    1
    68    44    43    2
    69    45    42    1
    70    42    43    1
    71    78    76    1
    72    76    77    1
    73    76    73    1
    74    49    50    1
    75    74    75    2
    76    74    73    1
    77    73    72    1
    78    50    53    1
    79    50    51    1
    80    72    64   am
    81    53    54    1
    82    64    65    2
    83    64    63    1
    84    56    54   ar
    85    54    55   ar
    86    51    52    2
    87    61    58    1
    88    63    62    1
    89    63    66    1
    90    70    68   ar
    91    70    71   ar
    92    68    67   ar
    93    71    69   ar
    94    67    69   ar
    95    67    66    1
    96    58    57    1
    97    58    59    1
    98    59    60    2
