@<TRIPOS>MOLECULE
tmp/1mosA00.pdb
 132 123 0 0 0
SMALL
GASTEIGER

@<TRIPOS>ATOM
      1  N         28.0750   24.3820   -3.7740 N.3    59  CYS59      -0.1221
      2  CA        26.8940   23.5730   -4.0720 C.3    59  CYS59       0.1808
      3  C         26.6820   22.5660   -2.9070 C.2    59  CYS59       0.2602
      4  O         27.6570   22.2690   -2.2220 O.2    59  CYS59      -0.2717
      5  CB        27.2170   22.6940   -5.3080 C.3    59  CYS59       0.0970
      6  SG        27.7610   23.7310   -6.7360 S.3    59  CYS59      -0.0800
      7  N         25.5230   21.9670   -2.8340 N.am   60  GLY60      -0.1942
      8  CA        25.2800   20.8400   -1.9350 C.3    60  GLY60       0.2014
      9  C         25.6250   21.1460   -0.4560 C.2    60  GLY60       0.2640
     10  O         25.1800   22.1990    0.0420 O.2    60  GLY60      -0.2714
     11  N         26.3380   20.2130    0.1310 N.am   61  THR61      -0.1936
     12  CA        26.6910   20.3440    1.5630 C.3    61  THR61       0.2028
     13  C         27.6020   21.5480    1.7670 C.2    61  THR61       0.2642
     14  O         27.3220   22.3140    2.7020 O.2    61  THR61      -0.2714
     15  CB        27.2940   19.0470    2.1100 C.3    61  THR61       0.1808
     16  OG1       26.2520   18.0790    2.3130 O.3    61  THR61      -0.2208
     17  CG2       28.0140   19.2710    3.4420 C.3    61  THR61       0.0379
     18  N         28.5090   21.8510    0.8280 N.am   62  SER62      -0.1949
     19  CA        29.2940   23.0870    0.9450 C.3    62  SER62       0.1924
     20  C         28.5010   24.3590    0.9320 C.2    62  SER62       0.2314
     21  O         28.9460   25.3570    1.5430 O.2    62  SER62      -0.2863
     22  CB        30.4470   23.1280   -0.0350 C.3    62  SER62       0.2116
     23  OG        31.3090   22.0310    0.1990 O.3    62  SER62      -0.2180
     24  N         33.5680   27.3570   -1.1720 N.3   105  LEU105     -0.1231
     25  CA        33.7270   26.2110   -0.2430 C.3   105  LEU105      0.1693
     26  C         33.6110   24.9360   -1.0370 C.2   105  LEU105      0.2593
     27  O         32.5990   24.7780   -1.7450 O.2   105  LEU105     -0.2718
     28  CB        32.5220   26.2720    0.7400 C.3   105  LEU105      0.0284
     29  CG        32.6120   27.5280    1.6250 C.3   105  LEU105      0.0019
     30  CD1       31.3030   27.7850    2.3140 C.3   105  LEU105      0.0001
     31  CD2       33.7610   27.2640    2.6030 C.3   105  LEU105      0.0001
     32  N         34.5540   24.0350   -0.9260 N.am  106  SER106     -0.1938
     33  CA        34.4510   22.8070   -1.6920 C.3   106  SER106      0.2055
     34  C         35.3250   21.7400   -1.0690 C.2   106  SER106      0.2643
     35  O         36.5240   21.9460   -0.8590 O.2   106  SER106     -0.2714
     36  CB        34.9430   23.1700   -3.1400 C.3   106  SER106      0.2130
     37  OG        35.1640   21.9440   -3.8320 O.3   106  SER106     -0.2179
     38  N         34.7580   20.5480   -0.8470 N.am  107  GLN107     -0.1963
     39  CA        35.5710   19.4830   -0.2910 C.3   107  GLN107      0.1733
     40  C         36.6440   19.0870   -1.3110 C.2   107  GLN107      0.2617
     41  O         37.8420   19.0550   -1.0440 O.2   107  GLN107     -0.2715
     42  CB        34.7470   18.2270    0.0200 C.3   107  GLN107      0.0408
     43  CG        35.5290   17.1560    0.7430 C.3   107  GLN107      0.0908
     44  CD        36.4030   16.2750   -0.0940 C.2   107  GLN107      0.2608
     45  OE1       37.4820   15.8440    0.3490 O.2   107  GLN107     -0.2717
     46  NE2       35.9680   15.9740   -1.3200 N.am  107  GLN107     -0.0878
     47  N         36.1470   18.7500   -2.5010 N.am  108  SER108     -0.1950
     48  CA        37.0260   18.2850   -3.5730 C.3   108  SER108      0.1924
     49  C         37.8330   19.3640   -4.2600 C.2   108  SER108      0.2314
     50  O         38.8870   19.0010   -4.8020 O.2   108  SER108     -0.2863
     51  CB        36.1660   17.5500   -4.6380 C.3   108  SER108      0.2116
     52  OG        35.3030   18.5260   -5.2240 O.3   108  SER108     -0.2180
     53  N         34.5370   20.7940   -8.0950 N.3   111  THR111     -0.1218
     54  CA        33.1330   20.9570   -8.4870 C.3   111  THR111      0.1862
     55  C         32.9910   21.9670   -9.6180 C.2   111  THR111      0.2287
     56  O         33.3060   23.1500   -9.4490 O.2   111  THR111     -0.2866
     57  CB        32.3090   21.3910   -7.2400 C.3   111  THR111      0.1770
     58  OG1       32.5170   20.3310   -6.2570 O.3   111  THR111     -0.2211
     59  CG2       30.8390   21.4170   -7.6090 C.3   111  THR111      0.0375
     60  N         31.1520   25.3390   -9.0420 N.3   114  THR114     -0.1218
     61  CA        31.8570   26.2650   -8.1200 C.3   114  THR114      0.1862
     62  C         33.1010   26.8340   -8.8130 C.2   114  THR114      0.2287
     63  O         33.4160   28.0140   -8.6850 O.2   114  THR114     -0.2866
     64  CB        32.2530   25.5030   -6.8270 C.3   114  THR114      0.1770
     65  OG1       31.0430   24.9570   -6.2310 O.3   114  THR114     -0.2211
     66  CG2       32.8720   26.4710   -5.8210 C.3   114  THR114      0.0375
     67  N         30.4380    9.3710   -0.0100 N.3   158  VAL158     -0.1245
     68  CA        29.8530   10.3990   -0.8920 C.3   158  VAL158      0.1561
     69  C         29.1330   11.4550   -0.0910 C.2   158  VAL158      0.2260
     70  O         29.1870   12.6580   -0.4070 O.2   158  VAL158     -0.2867
     71  CB        28.9370    9.7500   -1.9490 C.3   158  VAL158      0.0252
     72  CG1       28.0420   10.7970   -2.5770 C.3   158  VAL158      0.0019
     73  CG2       29.7890    9.0210   -2.9830 C.3   158  VAL158      0.0019
     74  N         29.1380   13.8890    2.6550 N.3   160  SER160     -0.1217
     75  CA        30.1510   14.5750    3.4080 C.3   160  SER160      0.1889
     76  C         29.7780   14.7740    4.8870 C.2   160  SER160      0.2288
     77  O         28.6460   15.1030    5.2470 O.2   160  SER160     -0.2866
     78  CB        30.3150   16.0110    2.8190 C.3   160  SER160      0.2089
     79  OG        31.5130   16.6130    3.2600 O.3   160  SER160     -0.2183
     80  N         19.3090   17.1230    3.7960 N.3   243  LEU243     -0.1231
     81  CA        20.1460   16.6300    2.6670 C.3   243  LEU243      0.1693
     82  C         20.7260   15.2720    2.9950 C.2   243  LEU243      0.2591
     83  O         20.6670   14.3170    2.1800 O.2   243  LEU243     -0.2718
     84  CB        21.2050   17.6560    2.2910 C.3   243  LEU243      0.0284
     85  CG        22.2410   17.3440    1.2160 C.3   243  LEU243      0.0019
     86  CD1       21.5620   16.8740   -0.0690 C.3   243  LEU243      0.0001
     87  CD2       23.0560   18.6150    0.8850 C.3   243  LEU243      0.0001
     88  N         21.3480   15.0900    4.1780 N.am  244  LYS244     -0.1980
     89  CA        21.9080   13.7720    4.4950 C.3   244  LYS244      0.1596
     90  C         20.8560   12.6670    4.4890 C.2   244  LYS244      0.2287
     91  O         21.1710   11.5470    4.0860 O.2   244  LYS244     -0.2864
     92  CB        22.6200   13.6840    5.8490 C.3   244  LYS244      0.0298
     93  CG        23.8590   14.4110    6.0940 C.3   244  LYS244      0.0038
     94  CD        25.1430   13.9680    5.4070 C.3   244  LYS244      0.0206
     95  CE        25.2020   14.6560    4.0360 C.3   244  LYS244      0.1093
     96  NZ        26.1990   15.7190    3.8990 N.3   244  LYS244     -0.1314
     97  N         20.1120   11.8810    0.8890 N.3   247  GLU247     -0.1245
     98  CA        21.2490   11.2580    0.2550 C.3   247  GLU247      0.1567
     99  C         21.4600    9.7920    0.5260 C.2   247  GLU247      0.2260
    100  O         21.7980    9.0400   -0.3940 O.2   247  GLU247     -0.2867
    101  CB        22.5410   11.9690    0.7060 C.3   247  GLU247      0.0388
    102  CG        22.9860   13.1510   -0.1140 C.3   247  GLU247      0.1160
    103  CD        24.3740   13.6380    0.3030 C.2   247  GLU247      0.3649
    104  OE1       24.4870   14.2560    1.3640 O.co2 247  GLU247     -0.2457
    105  OE2       25.3550   13.3430   -0.4050 O.co2 247  GLU247     -0.2457
    106  N         27.6780   10.9020   -6.8570 N.3   361  ALA361     -0.1231
    107  CA        29.1350   10.7870   -6.9740 C.3   361  ALA361      0.1694
    108  C         29.7610   11.8020   -6.0090 C.2   361  ALA361      0.2592
    109  O         29.1270   12.8430   -5.7810 O.2   361  ALA361     -0.2718
    110  CB        29.5870   11.0890   -8.4040 C.3   361  ALA361      0.0304
    111  N         30.9280   11.4750   -5.4830 N.am  362  LYS362     -0.1966
    112  CA        31.6170   12.3240   -4.5120 C.3   362  LYS362      0.1728
    113  C         31.6640   13.7640   -4.9780 C.2   362  LYS362      0.2617
    114  O         31.2210   14.6760   -4.2730 O.2   362  LYS362     -0.2715
    115  CB        33.0370   11.7940   -4.2620 C.3   362  LYS362      0.0311
    116  CG        33.7470   12.4480   -3.0750 C.3   362  LYS362      0.0038
    117  CD        32.8120   12.4700   -1.8700 C.3   362  LYS362      0.0206
    118  CE        33.4940   13.0490   -0.6260 C.3   362  LYS362      0.1093
    119  NZ        32.4130   13.5040    0.3350 N.3   362  LYS362     -0.1314
    120  N         32.2120   13.9880   -6.1800 N.am  363  SER363     -0.1936
    121  CA        32.2330   15.3530   -6.7170 C.3   363  SER363      0.2055
    122  C         31.6680   15.3820   -8.1390 C.2   363  SER363      0.2642
    123  O         31.8680   14.4610   -8.9230 O.2   363  SER363     -0.2714
    124  CB        33.6210   15.9740   -6.7060 C.3   363  SER363      0.2130
    125  OG        34.4750   15.3120   -7.6290 O.3   363  SER363     -0.2179
    126  N         30.9370   16.4380   -8.4330 N.am  364  VAL364     -0.1977
    127  CA        30.3260   16.5990   -9.7560 C.3   364  VAL364      0.1596
    128  C         31.2370   17.5140  -10.5680 C.2   364  VAL364      0.2287
    129  O         31.2020   18.7420  -10.4840 O.2   364  VAL364     -0.2864
    130  CB        28.8970   17.1100   -9.5960 C.3   364  VAL364      0.0276
    131  CG1       28.0930   16.9370  -10.8650 C.3   364  VAL364      0.0022
    132  CG2       28.2500   16.2830   -8.4720 C.3   364  VAL364      0.0022
@<TRIPOS>BOND
     1   131   130    1
     2   128   129    2
     3   128   127    1
     4   127   130    1
     5   127   126    1
     6    55    56    2
     7    55    54    1
     8   130   132    1
     9    60    61    1
    10   123   122    2
    11    62    63    2
    12    62    61    1
    13    54    53    1
    14    54    57    1
    15   126   122   am
    16   110   107    1
    17   122   121    1
    18    61    64    1
    19   125   124    1
    20    59    57    1
    21    57    58    1
    22   107   106    1
    23   107   108    1
    24    64    65    1
    25    64    66    1
    26     6     5    1
    27   121   124    1
    28   121   120    1
    29   120   113   am
    30   108   109    2
    31   108   111   am
    32   111   112    1
    33     5     2    1
    34    52    51    1
    35   113   112    1
    36   113   114    2
    37    50    49    2
    38    51    48    1
    39   112   115    1
    40   115   116    1
    41    49    48    1
    42     2     1    1
    43     2     3    1
    44    37    36    1
    45    48    47    1
    46    36    33    1
    47   116   117    1
    48    73    71    1
    49     3     7   am
    50     3     4    2
    51     7     8    1
    52    72    71    1
    53    47    40   am
    54    71    68    1
    55     8     9    1
    56   117   118    1
    57    27    26    2
    58    33    34    1
    59    33    32    1
    60    46    44   am
    61    40    41    2
    62    40    39    1
    63    24    25    1
    64    34    35    2
    65    34    38   am
    66    26    32   am
    67    26    25    1
    68    68    69    1
    69    68    67    1
    70    38    39    1
    71   118   119    1
    72     9    10    2
    73     9    11   am
    74    70    69    2
    75   105   103   ar
    76   100    99    2
    77    39    42    1
    78    25    28    1
    79   102   103    1
    80   102   101    1
    81    44    45    2
    82    44    43    1
    83    86    85    1
    84    22    23    1
    85    22    19    1
    86    42    43    1
    87    11    12    1
    88    98    99    1
    89    98   101    1
    90    98    97    1
    91   103   104   ar
    92    28    29    1
    93    18    19    1
    94    18    13   am
    95    87    85    1
    96    20    19    1
    97    20    21    2
    98    85    84    1
    99    12    13    1
   100    12    15    1
   101    29    30    1
   102    29    31    1
   103    13    14    2
   104    15    16    1
   105    15    17    1
   106    83    82    2
   107    84    81    1
   108    74    75    1
   109    81    82    1
   110    81    80    1
   111    78    79    1
   112    78    75    1
   113    82    88   am
   114    75    76    1
   115    96    95    1
   116    95    94    1
   117    91    90    2
   118    88    89    1
   119    90    89    1
   120    89    92    1
   121    76    77    2
   122    94    93    1
   123    92    93    1
