@<TRIPOS>MOLECULE
tmp/1mozB00.pdb
 105 100 0 0 0
SMALL
GASTEIGER

@<TRIPOS>ATOM
      1  N         22.6090   98.2080   19.1170 N.3    26  ASP26      -0.1225
      2  CA        23.3000   98.0770   17.8320 C.3    26  ASP26       0.1805
      3  C         23.7400   99.4620   17.3480 C.2    26  ASP26       0.2598
      4  O         23.1990  100.4940   17.7750 O.2    26  ASP26      -0.2718
      5  CB        22.4060   97.4220   16.7730 C.3    26  ASP26       0.1424
      6  CG        21.1510   98.2260   16.4880 C.2    26  ASP26       0.3668
      7  OD1       20.2790   98.3360   17.3800 O.co2  26  ASP26      -0.2456
      8  OD2       21.0380   98.7540   15.3640 O.co2  26  ASP26      -0.2456
      9  N         24.7330   99.4810   16.4630 N.am   27  GLY27      -0.1942
     10  CA        25.2310  100.7370   15.9490 C.3    27  GLY27       0.2014
     11  C         26.2190  101.4280   16.8740 C.2    27  GLY27       0.2639
     12  O         26.9340  102.3230   16.4350 O.2    27  GLY27      -0.2714
     13  N         26.2730  101.0310   18.1440 N.am   28  ALA28      -0.1963
     14  CA        27.2030  101.6600   19.0830 C.3    28  ALA28       0.1728
     15  C         28.6540  101.4850   18.6560 C.2    28  ALA28       0.2617
     16  O         29.5250  102.2530   19.0790 O.2    28  ALA28      -0.2715
     17  CB        27.0170  101.0900   20.4750 C.3    28  ALA28       0.0334
     18  N         28.9140  100.4710   17.8290 N.am   29  GLY29      -0.1940
     19  CA        30.2670  100.2310   17.3620 C.3    29  GLY29       0.2014
     20  C         30.9960   99.0910   18.0610 C.2    29  GLY29       0.2639
     21  O         32.2300   99.0440   18.1020 O.2    29  GLY29      -0.2714
     22  N         30.2300   98.1630   18.6110 N.am   30  LYS30      -0.1963
     23  CA        30.8130   97.0320   19.3030 C.3    30  LYS30       0.1728
     24  C         31.6590   96.1900   18.3590 C.2    30  LYS30       0.2617
     25  O         32.8320   95.9470   18.6200 O.2    30  LYS30      -0.2715
     26  CB        29.7080   96.1940   19.9250 C.3    30  LYS30       0.0311
     27  CG        29.0460   96.8350   21.1520 C.3    30  LYS30       0.0038
     28  CD        27.7960   96.0610   21.6070 C.3    30  LYS30       0.0206
     29  CE        26.6240   96.2670   20.6480 C.3    30  LYS30       0.1093
     30  NZ        26.9500   95.9910   19.2170 N.3    30  LYS30      -0.1314
     31  N         31.0680   95.7450   17.2600 N.am   31  THR31      -0.1937
     32  CA        31.8050   94.9440   16.2890 C.3    31  THR31       0.2028
     33  C         33.1350   95.6000   15.9490 C.2    31  THR31       0.2642
     34  O         34.1880   94.9660   16.0260 O.2    31  THR31      -0.2714
     35  CB        31.0500   94.7910   14.9680 C.3    31  THR31       0.1808
     36  OG1       29.7350   94.2780   15.2230 O.3    31  THR31      -0.2208
     37  CG2       31.8140   93.8390   14.0400 C.3    31  THR31       0.0379
     38  N         33.0790   96.8630   15.5550 N.am   32  THR32      -0.1950
     39  CA        34.2960   97.5930   15.2120 C.3    32  THR32       0.1897
     40  C         35.3880   97.3830   16.2840 C.2    32  THR32       0.2313
     41  O         36.5070   96.9530   15.9620 O.2    32  THR32      -0.2863
     42  CB        33.9930   99.1160   15.0200 C.3    32  THR32       0.1794
     43  OG1       33.2630   99.3090   13.7970 O.3    32  THR32      -0.2208
     44  CG2       35.2880   99.9280   14.9780 C.3    32  THR32       0.0378
     45  N         24.1300   92.3780   20.2380 N.3    67  ASP67      -0.1239
     46  CA        23.3190   93.5920   20.4020 C.3    67  ASP67       0.1674
     47  C         22.2040   93.4880   21.4470 C.2    67  ASP67       0.2266
     48  O         21.5750   92.4460   21.6110 O.2    67  ASP67      -0.2867
     49  CB        22.7180   94.0180   19.0530 C.3    67  ASP67       0.1410
     50  CG        23.7690   94.5220   18.0780 C.2    67  ASP67       0.3668
     51  OD1       24.5920   95.3710   18.4800 O.co2  67  ASP67      -0.2456
     52  OD2       23.7700   94.0760   16.9100 O.co2  67  ASP67      -0.2456
     53  N         31.4110  106.0950   22.6630 N.3   122  ASN122     -0.1225
     54  CA        31.9980  106.0080   21.3300 C.3   122  ASN122      0.1785
     55  C         31.4700  107.0050   20.2980 C.2   122  ASN122      0.2597
     56  O         30.4130  107.6020   20.4570 O.2   122  ASN122     -0.2718
     57  CB        31.7870  104.5830   20.8090 C.3   122  ASN122      0.1169
     58  CG        32.7870  104.2290   19.7270 C.2   122  ASN122      0.2627
     59  OD1       32.4160  103.7110   18.6620 O.2   122  ASN122     -0.2716
     60  ND2       34.0690  104.5020   19.9920 N.am  122  ASN122     -0.0877
     61  N         32.2560  107.1680   19.2340 N.am  123  LYS123     -0.1980
     62  CA        31.9360  108.0810   18.1360 C.3   123  LYS123      0.1596
     63  C         32.1820  109.5710   18.4670 C.2   123  LYS123      0.2287
     64  O         31.5250  110.4440   17.9110 O.2   123  LYS123     -0.2864
     65  CB        30.4870  107.8590   17.6880 C.3   123  LYS123      0.0298
     66  CG        30.1800  106.4300   17.2780 C.3   123  LYS123      0.0038
     67  CD        28.9440  106.3360   16.4010 C.3   123  LYS123      0.0206
     68  CE        28.7530  104.9300   15.8540 C.3   123  LYS123      0.1093
     69  NZ        27.8270  104.9010   14.6930 N.3   123  LYS123     -0.1314
     70  N         34.2920  111.3250   17.5000 N.3   125  ASP125     -0.1225
     71  CA        34.7900  112.0400   16.3380 C.3   125  ASP125      0.1805
     72  C         33.6440  112.6730   15.5430 C.2   125  ASP125      0.2597
     73  O         33.8640  113.5940   14.7520 O.2   125  ASP125     -0.2718
     74  CB        35.5640  111.0750   15.4500 C.3   125  ASP125      0.1424
     75  CG        34.7000  109.9470   14.9400 C.2   125  ASP125      0.3668
     76  OD1       33.9050  110.1730   14.0030 O.co2 125  ASP125     -0.2456
     77  OD2       34.8040  108.8370   15.4930 O.co2 125  ASP125     -0.2456
     78  N         32.4310  112.1840   15.7690 N.am  126  GLN126     -0.1979
     79  CA        31.2500  112.6620   15.0540 C.3   126  GLN126      0.1601
     80  C         30.6420  113.9520   15.5880 C.2   126  GLN126      0.2287
     81  O         30.7350  114.2650   16.7760 O.2   126  GLN126     -0.2864
     82  CB        30.1670  111.5680   15.0240 C.3   126  GLN126      0.0394
     83  CG        30.4570  110.4310   14.0830 C.3   126  GLN126      0.0908
     84  CD        30.5920  110.9130   12.6760 C.2   126  GLN126      0.2608
     85  OE1       31.3980  111.7880   12.3870 O.2   126  GLN126     -0.2717
     86  NE2       29.8000  110.3510   11.7820 N.am  126  GLN126     -0.0878
     87  N         36.7880  106.7120   19.7960 N.3   155  SER155     -0.1202
     88  CA        36.5870  106.7300   18.3650 C.3   155  SER155      0.2020
     89  C         37.1030  105.4000   17.8670 C.2   155  SER155      0.2619
     90  O         38.1420  105.3310   17.1950 O.2   155  SER155     -0.2717
     91  CB        37.3540  107.8640   17.6830 C.3   155  SER155      0.2103
     92  OG        37.2160  109.0800   18.4030 O.3   155  SER155     -0.2182
     93  N         36.3730  104.3350   18.2060 N.am  156  ALA156     -0.1965
     94  CA        36.7660  102.9960   17.8300 C.3   156  ALA156      0.1728
     95  C         37.3170  102.9920   16.4170 C.2   156  ALA156      0.2616
     96  O         38.3960  102.4580   16.1520 O.2   156  ALA156     -0.2715
     97  CB        35.6100  102.0230   17.9500 C.3   156  ALA156      0.0334
     98  N         36.5730  103.5980   15.5090 N.am  157  ILE157     -0.1977
     99  CA        36.9850  103.6640   14.1180 C.3   157  ILE157      0.1596
    100  C         38.4600  104.0850   13.9600 C.2   157  ILE157      0.2287
    101  O         39.2140  103.4610   13.2350 O.2   157  ILE157     -0.2864
    102  CB        36.0690  104.6310   13.3400 C.3   157  ILE157      0.0276
    103  CG1       36.4440  104.6040   11.8590 C.3   157  ILE157      0.0022
    104  CG2       36.1590  106.0370   13.9400 C.3   157  ILE157      0.0022
    105  CD1       35.6490  105.5650   10.9840 C.3   157  ILE157      0.0001
@<TRIPOS>BOND
     1   105   103    1
     2    86    84   am
     3   103   102    1
     4    85    84    2
     5    84    83    1
     6   101   100    2
     7   102   104    1
     8   102    99    1
     9    43    42    1
    10   100    99    1
    11    76    75   ar
    12    37    35    1
    13    83    82    1
    14    99    98    1
    15    69    68    1
    16    73    72    2
    17    75    74    1
    18    75    77   ar
    19    35    36    1
    20    35    32    1
    21    44    42    1
    22    42    39    1
    23    82    79    1
    24    79    80    1
    25    79    78    1
    26    39    38    1
    27    39    40    1
    28     8     6   ar
    29    74    71    1
    30    98    95   am
    31    72    78   am
    32    72    71    1
    33    38    33   am
    34    80    81    2
    35    68    67    1
    36    10     9    1
    37    10    11    1
    38    33    34    2
    39    33    32    1
    40    41    40    2
    41    96    95    2
    42    32    31    1
    43    71    70    1
    44    67    66    1
    45    95    94    1
    46    12    11    2
    47     9     3   am
    48     6     5    1
    49     6     7   ar
    50     5     2    1
    51    11    13   am
    52    52    50   ar
    53    90    89    2
    54    31    24   am
    55    66    65    1
    56     3     4    2
    57     3     2    1
    58    19    18    1
    59    19    20    1
    60    91    88    1
    61    91    92    1
    62    65    62    1
    63    18    15   am
    64    94    97    1
    65    94    93    1
    66     2     1    1
    67    89    93   am
    68    89    88    1
    69    64    63    2
    70    20    21    2
    71    20    22   am
    72    50    51   ar
    73    50    49    1
    74    62    63    1
    75    62    61    1
    76    13    14    1
    77    24    25    2
    78    24    23    1
    79    88    87    1
    80    22    23    1
    81    15    16    2
    82    15    14    1
    83    59    58    2
    84    49    46    1
    85    14    17    1
    86    30    29    1
    87    61    55   am
    88    23    26    1
    89    58    60   am
    90    58    57    1
    91    26    27    1
    92    45    46    1
    93    55    56    2
    94    55    54    1
    95    46    47    1
    96    29    28    1
    97    57    54    1
    98    27    28    1
    99    54    53    1
   100    47    48    2
