@<TRIPOS>MOLECULE
tmp/1mp3B00.pdb
 132 131 0 0 0
SMALL
GASTEIGER

@<TRIPOS>ATOM
      1  N         32.1480  106.8670   48.2040 N.3    46  LEU46      -0.1245
      2  CA        31.1690  106.0580   48.9490 C.3    46  LEU46       0.1561
      3  C         31.7660  105.3850   50.1840 C.2    46  LEU46       0.2260
      4  O         31.0420  104.9870   51.0980 O.2    46  LEU46      -0.2867
      5  CB        30.5660  104.9950   48.0340 C.3    46  LEU46       0.0270
      6  CG        29.5870  105.5790   47.0190 C.3    46  LEU46       0.0019
      7  CD1       29.3320  104.5830   45.9230 C.3    46  LEU46       0.0001
      8  CD2       28.2970  105.9490   47.7340 C.3    46  LEU46       0.0001
      9  N         32.9660   99.1090   40.4180 N.3   114  PHE114     -0.1227
     10  CA        32.2470   98.2780   41.3750 C.3   114  PHE114      0.1736
     11  C         30.7830   98.7000   41.4310 C.2   114  PHE114      0.2595
     12  O         30.4760   99.8800   41.2960 O.2   114  PHE114     -0.2718
     13  CB        32.8540   98.4070   42.7740 C.3   114  PHE114      0.0547
     14  CG        34.2610   97.9340   42.8660 C.ar  114  PHE114     -0.0202
     15  CD1       35.3040   98.7480   42.4370 C.ar  114  PHE114     -0.0042
     16  CD2       34.5440   96.6610   43.3610 C.ar  114  PHE114     -0.0042
     17  CE1       36.6230   98.3110   42.4950 C.ar  114  PHE114     -0.0003
     18  CE2       35.8590   96.1980   43.4280 C.ar  114  PHE114     -0.0003
     19  CZ        36.9080   97.0250   42.9950 C.ar  114  PHE114     -0.0000
     20  N         29.8810   97.7380   41.6150 N.am  115  TYR115     -0.1962
     21  CA        28.4580   98.0520   41.7170 C.3   115  TYR115      0.1771
     22  C         27.6750   96.9400   42.4050 C.2   115  TYR115      0.2620
     23  O         27.8240   95.7630   42.0730 O.2   115  TYR115     -0.2715
     24  CB        27.8380   98.2810   40.3410 C.3   115  TYR115      0.0574
     25  CG        26.4750   98.9090   40.4520 C.ar  115  TYR115     -0.0198
     26  CD1       26.3530  100.2420   40.8360 C.ar  115  TYR115     -0.0009
     27  CD2       25.3030   98.1610   40.2670 C.ar  115  TYR115     -0.0009
     28  CE1       25.1140  100.8270   41.0410 C.ar  115  TYR115      0.0417
     29  CE2       24.0380   98.7420   40.4760 C.ar  115  TYR115      0.0417
     30  CZ        23.9630  100.0830   40.8670 C.ar  115  TYR115      0.1957
     31  OH        22.7560  100.7090   41.1020 O.3   115  TYR115     -0.2866
     32  N         26.8240   97.3130   43.3530 N.am  116  GLY116     -0.1940
     33  CA        26.0290   96.3100   44.0350 C.3   116  GLY116      0.2014
     34  C         25.4150   96.7920   45.3260 C.2   116  GLY116      0.2639
     35  O         25.9240   97.7220   45.9600 O.2   116  GLY116     -0.2714
     36  N         24.3140   96.1620   45.7190 N.am  117  HIS117     -0.1959
     37  CA        23.6420   96.5400   46.9460 C.3   117  HIS117      0.1787
     38  C         24.5320   96.2600   48.1500 C.2   117  HIS117      0.2620
     39  O         25.1180   95.1840   48.2640 O.2   117  HIS117     -0.2715
     40  CB        22.3160   95.7880   47.0820 C.3   117  HIS117      0.0785
     41  CG        21.6290   96.0100   48.3920 C.ar  117  HIS117      0.0821
     42  ND1       21.6030   95.0540   49.3880 N.ar  117  HIS117     -0.2267
     43  CD2       20.9620   97.0800   48.8870 C.ar  117  HIS117      0.1154
     44  CE1       20.9520   95.5260   50.4330 C.ar  117  HIS117      0.1986
     45  NE2       20.5510   96.7540   50.1570 N.ar  117  HIS117     -0.2212
     46  N         24.6290   97.2490   49.0310 N.am  118  ASP118     -0.1957
     47  CA        25.4360   97.1820   50.2480 C.3   118  ASP118      0.1840
     48  C         26.9360   97.4100   50.0260 C.2   118  ASP118      0.2622
     49  O         27.7280   97.2710   50.9610 O.2   118  ASP118     -0.2715
     50  CB        25.2130   95.8520   50.9940 C.3   118  ASP118      0.1450
     51  CG        24.0730   95.9330   51.9910 C.2   118  ASP118      0.3671
     52  OD1       23.7080   97.0710   52.3450 O.co2 118  ASP118     -0.2456
     53  OD2       23.5610   94.8760   52.4280 O.co2 118  ASP118     -0.2456
     54  N         27.3230   97.7760   48.8060 N.am  119  LEU119     -0.1964
     55  CA        28.7300   98.0270   48.5030 C.3   119  LEU119      0.1713
     56  C         29.3420   98.9610   49.5490 C.2   119  LEU119      0.2458
     57  O         30.4120   98.6780   50.0860 O.2   119  LEU119     -0.2730
     58  CB        28.8980   98.6400   47.1070 C.3   119  LEU119      0.0310
     59  CG        30.3720   98.8550   46.7250 C.3   119  LEU119      0.0022
     60  CD1       31.0390   97.4970   46.5380 C.3   119  LEU119      0.0001
     61  CD2       30.4960   99.6780   45.4310 C.3   119  LEU119      0.0001
     62  N         28.6740  100.0900   49.8500 N.am  120  PRO120     -0.2727
     63  CA        29.1820  101.0430   50.8440 C.3   120  PRO120      0.1402
     64  C         29.3910  100.3670   52.1920 C.2   120  PRO120      0.2269
     65  O         30.3650  100.6380   52.8960 O.2   120  PRO120     -0.2865
     66  CB        28.0820  102.0930   50.9120 C.3   120  PRO120      0.0296
     67  CG        27.5460  102.0860   49.5260 C.3   120  PRO120      0.0237
     68  CD        27.4490  100.6100   49.2230 C.3   120  PRO120      0.0939
     69  N         18.1710  106.4370   37.2010 N.3   249  LEU249     -0.1231
     70  CA        19.1700  106.8560   38.1820 C.3   249  LEU249      0.1693
     71  C         20.5400  106.5990   37.5750 C.2   249  LEU249      0.2592
     72  O         20.7170  105.6370   36.8190 O.2   249  LEU249     -0.2718
     73  CB        19.0320  106.0410   39.4670 C.3   249  LEU249      0.0284
     74  CG        17.6970  106.2180   40.1920 C.3   249  LEU249      0.0019
     75  CD1       17.5450  105.1420   41.2490 C.3   249  LEU249      0.0001
     76  CD2       17.6290  107.6040   40.7990 C.3   249  LEU249      0.0001
     77  N         21.5180  107.4340   37.9090 N.am  250  LYS250     -0.1966
     78  CA        22.8580  107.2520   37.3470 C.3   250  LYS250      0.1728
     79  C         23.7730  106.4540   38.2710 C.2   250  LYS250      0.2616
     80  O         23.6340  106.4950   39.4910 O.2   250  LYS250     -0.2715
     81  CB        23.5030  108.6120   37.0290 C.3   250  LYS250      0.0311
     82  CG        22.7030  109.4960   36.0760 C.3   250  LYS250      0.0038
     83  CD        22.4780  108.8120   34.7230 C.3   250  LYS250      0.0206
     84  CE        21.5060  109.5920   33.8330 C.3   250  LYS250      0.1093
     85  NZ        21.2610  108.8570   32.5630 N.3   250  LYS250     -0.1314
     86  N         24.7010  105.7030   37.6820 N.am  251  VAL251     -0.1963
     87  CA        25.6530  104.9190   38.4700 C.3   251  VAL251      0.1727
     88  C         26.9610  105.6780   38.6120 C.2   251  VAL251      0.2617
     89  O         27.5410  106.1290   37.6200 O.2   251  VAL251     -0.2715
     90  CB        26.0100  103.5790   37.8090 C.3   251  VAL251      0.0290
     91  CG1       27.0210  102.8400   38.6790 C.3   251  VAL251      0.0023
     92  CG2       24.7650  102.7310   37.6160 C.3   251  VAL251      0.0023
     93  N         27.4310  105.7960   39.8490 N.am  252  SER252     -0.1936
     94  CA        28.6780  106.4900   40.1210 C.3   252  SER252      0.2055
     95  C         28.7630  107.9140   39.5580 C.2   252  SER252      0.2643
     96  O         29.7040  108.2340   38.8390 O.2   252  SER252     -0.2714
     97  CB        29.8570  105.6690   39.5820 C.3   252  SER252      0.2130
     98  OG        29.9300  104.4070   40.2200 O.3   252  SER252     -0.2179
     99  N         27.7710  108.7470   39.8380 N.am  253  CYS253     -0.1967
    100  CA        27.8150  110.1400   39.4220 C.3   253  CYS253      0.1712
    101  C         28.3790  110.8780   40.6440 C.2   253  CYS253      0.2296
    102  O         27.7110  111.0040   41.6710 O.2   253  CYS253     -0.2864
    103  CB        26.4180  110.6250   39.1120 C.3   253  CYS253      0.0983
    104  SG        26.2320  112.3840   39.2610 S.3   253  CYS253     -0.0798
    105  N         26.2570  113.5380   42.3240 N.3   256  GLU256     -0.1231
    106  CA        25.1800  112.9770   43.1410 C.3   256  GLU256      0.1699
    107  C         25.6620  112.4310   44.4910 C.2   256  GLU256      0.2592
    108  O         25.0660  112.7150   45.5230 O.2   256  GLU256     -0.2718
    109  CB        24.4480  111.8590   42.3940 C.3   256  GLU256      0.0402
    110  CG        23.5940  110.9940   43.3060 C.3   256  GLU256      0.1161
    111  CD        22.6900  110.0510   42.5410 C.2   256  GLU256      0.3649
    112  OE1       23.1280  109.5240   41.4850 O.co2 256  GLU256     -0.2457
    113  OE2       21.5440  109.8350   43.0090 O.co2 256  GLU256     -0.2457
    114  N         26.7310  111.6420   44.4740 N.am  257  ILE257     -0.1980
    115  CA        27.2760  111.0480   45.6890 C.3   257  ILE257      0.1595
    116  C         27.7870  112.1080   46.6520 C.2   257  ILE257      0.2287
    117  O         27.6240  111.9890   47.8730 O.2   257  ILE257     -0.2864
    118  CB        28.4130  110.0620   45.3420 C.3   257  ILE257      0.0276
    119  CG1       27.8110  108.8340   44.6540 C.3   257  ILE257      0.0022
    120  CG2       29.1790  109.6570   46.5870 C.3   257  ILE257      0.0022
    121  CD1       28.7980  107.9820   43.8900 C.3   257  ILE257      0.0001
    122  N         24.4680  113.5040   48.1320 N.3   260  ARG260     -0.1245
    123  CA        23.7680  112.6170   49.0630 C.3   260  ARG260      0.1563
    124  C         24.5640  112.3420   50.3310 C.2   260  ARG260      0.2260
    125  O         24.0070  111.9280   51.3460 O.2   260  ARG260     -0.2867
    126  CB        23.4190  111.2940   48.3820 C.3   260  ARG260      0.0307
    127  CG        22.3100  111.4180   47.3520 C.3   260  ARG260      0.0489
    128  CD        22.0230  110.1000   46.6700 C.3   260  ARG260      0.2205
    129  NE        21.1880  110.2970   45.4880 N.pl3 260  ARG260     -0.0865
    130  CZ        19.9170  110.6890   45.5290 C.cat 260  ARG260      0.5346
    131  NH1       19.3270  110.9170   46.6950 N.pl3 260  ARG260      0.1354
    132  NH2       19.2420  110.8820   44.4050 N.pl3 260  ARG260      0.1354
@<TRIPOS>BOND
     1    85    84    1
     2    84    83    1
     3    83    82    1
     4    82    81    1
     5    72    71    2
     6    81    78    1
     7    69    70    1
     8    78    77    1
     9    78    79    1
    10    71    77   am
    11    71    70    1
    12    92    90    1
    13    89    88    2
    14    86    79   am
    15    86    87    1
    16    90    87    1
    17    90    91    1
    18    70    73    1
    19    79    80    2
    20    87    88    1
    21    88    93   am
    22    96    95    2
    23   103   104    1
    24   103   100    1
    25   100    99    1
    26   100   101    1
    27    73    74    1
    28    95    99   am
    29    95    94    1
    30    97    94    1
    31    97    98    1
    32    93    94    1
    33    74    76    1
    34    74    75    1
    35    27    25   ar
    36    27    29   ar
    37    24    25    1
    38    24    21    1
    39     9    10    1
    40    25    26   ar
    41    29    30   ar
    42   101   102    2
    43    26    28   ar
    44    30    28   ar
    45    30    31    1
    46    12    11    2
    47    10    11    1
    48    10    13    1
    49    11    20   am
    50   112   111   ar
    51    20    21    1
    52    21    22    1
    53    23    22    2
    54   105   106    1
    55   109   106    1
    56   109   110    1
    57    22    32   am
    58    15    17   ar
    59    15    14   ar
    60    17    19   ar
    61   111   113   ar
    62   111   110    1
    63    13    14    1
    64    14    16   ar
    65    19    18   ar
    66   106   107    1
    67    32    33    1
    68    16    18   ar
    69   121   119    1
    70    33    34    1
    71   132   130    1
    72   114   107   am
    73   114   115    1
    74   107   108    2
    75   119   118    1
    76    34    36   am
    77    34    35    2
    78   118   115    1
    79   118   120    1
    80    61    59    1
    81   129   130    2
    82   129   128    1
    83   130   131    1
    84   115   116    1
    85    36    37    1
    86     7     6    1
    87    60    59    1
    88   116   117    2
    89   128   127    1
    90    59    58    1
    91    37    40    1
    92    37    38    1
    93     6     8    1
    94     6     5    1
    95    40    41    1
    96    58    55    1
    97   127   126    1
    98     5     2    1
    99   122   123    1
   100    38    39    2
   101    38    46   am
   102     1     2    1
   103   126   123    1
   104    41    43   ar
   105    41    42   ar
   106    55    54    1
   107    55    56    1
   108    54    48   am
   109    43    45   ar
   110     2     3    1
   111    46    47    1
   112   123   124    1
   113    68    67    1
   114    68    62    1
   115    42    44   ar
   116    67    66    1
   117    56    62   am
   118    56    57    2
   119    62    63    1
   120    48    47    1
   121    48    49    2
   122    45    44   ar
   123     3     4    2
   124    47    50    1
   125   124   125    2
   126    63    66    1
   127    63    64    1
   128    50    51    1
   129    51    52   ar
   130    51    53   ar
   131    64    65    2
