@<TRIPOS>MOLECULE
tmp/1mp3B01.pdb
 146 135 0 0 0
SMALL
GASTEIGER

@<TRIPOS>ATOM
      1  N         45.0490  104.7160   41.1820 N.3     9  LEU9       -0.1245
      2  CA        46.1200  104.4470   40.2390 C.3     9  LEU9        0.1561
      3  C         45.5100  104.4630   38.8420 C.2     9  LEU9        0.2260
      4  O         44.8700  103.4980   38.4200 O.2     9  LEU9       -0.2867
      5  CB        46.7510  103.0900   40.5440 C.3     9  LEU9        0.0270
      6  CG        48.0620  102.8390   39.7970 C.3     9  LEU9        0.0019
      7  CD1       49.0000  104.0250   40.0010 C.3     9  LEU9        0.0001
      8  CD2       48.6970  101.5600   40.2990 C.3     9  LEU9        0.0001
      9  N         47.2750  105.1050   35.7410 N.3    11  GLY11      -0.1210
     10  CA        48.2880  105.1750   34.7060 C.3    11  GLY11       0.1956
     11  C         48.3440  103.8900   33.9030 C.2    11  GLY11       0.2612
     12  O         47.3130  103.3990   33.4290 O.2    11  GLY11      -0.2717
     13  N         49.5500  103.3490   33.7440 N.am   12  GLY12      -0.1942
     14  CA        49.7230  102.1140   33.0020 C.3    12  GLY12       0.2014
     15  C         49.8650  102.3420   31.5110 C.2    12  GLY12       0.2640
     16  O         49.4610  103.3880   30.9950 O.2    12  GLY12      -0.2714
     17  N         50.4360  101.3610   30.8160 N.am   13  SER13      -0.1935
     18  CA        50.6330  101.4660   29.3710 C.3    13  SER13       0.2055
     19  C         49.3350  101.2090   28.6010 C.2    13  SER13       0.2644
     20  O         49.1190  101.7780   27.5310 O.2    13  SER13      -0.2714
     21  CB        51.7150  100.4800   28.9020 C.3    13  SER13       0.2130
     22  OG        51.2820   99.1390   29.0450 O.3    13  SER13      -0.2179
     23  N         48.4770  100.3500   29.1450 N.am   14  GLY14      -0.1939
     24  CA        47.2140  100.0450   28.4880 C.3    14  GLY14       0.2014
     25  C         47.3860   99.5590   27.0590 C.2    14  GLY14       0.2640
     26  O         46.6260   99.9370   26.1610 O.2    14  GLY14      -0.2714
     27  N         48.3830   98.7030   26.8580 N.am   15  THR15      -0.1936
     28  CA        48.6950   98.1640   25.5430 C.3    15  THR15       0.2028
     29  C         47.6300   97.2300   24.9640 C.2    15  THR15       0.2642
     30  O         47.5630   97.0380   23.7470 O.2    15  THR15      -0.2714
     31  CB        50.0470   97.4130   25.5680 C.3    15  THR15       0.1808
     32  OG1       50.3790   96.9840   24.2400 O.3    15  THR15      -0.2208
     33  CG2       49.9640   96.1960   26.4830 C.3    15  THR15       0.0379
     34  N         46.7920   96.6560   25.8210 N.am   16  ARG16      -0.1963
     35  CA        45.7520   95.7420   25.3500 C.3    16  ARG16       0.1729
     36  C         44.5940   96.4180   24.6200 C.2    16  ARG16       0.2616
     37  O         43.9350   95.7880   23.7990 O.2    16  ARG16      -0.2715
     38  CB        45.1930   94.9100   26.5090 C.3    16  ARG16       0.0348
     39  CG        46.0280   93.6910   26.8740 C.3    16  ARG16       0.0492
     40  CD        45.1460   92.6030   27.4710 C.3    16  ARG16       0.2205
     41  NE        44.4980   93.0190   28.7140 N.pl3  16  ARG16      -0.0865
     42  CZ        43.5460   92.3230   29.3310 C.cat  16  ARG16       0.5346
     43  NH1       43.1220   91.1740   28.8210 N.pl3  16  ARG16       0.1354
     44  NH2       43.0220   92.7730   30.4630 N.pl3  16  ARG16       0.1354
     45  N         44.3440   97.6900   24.9150 N.am   17  LEU17      -0.1977
     46  CA        43.2490   98.4090   24.2660 C.3    17  LEU17       0.1596
     47  C         43.6930   99.1350   22.9900 C.2    17  LEU17       0.2287
     48  O         42.8920   99.7910   22.3340 O.2    17  LEU17      -0.2864
     49  CB        42.6130   99.4000   25.2500 C.3    17  LEU17       0.0297
     50  CG        41.8220   98.7380   26.3880 C.3    17  LEU17       0.0022
     51  CD1       41.4590   99.7590   27.4610 C.3    17  LEU17       0.0001
     52  CD2       40.5730   98.0870   25.8250 C.3    17  LEU17       0.0001
     53  N         43.2680  105.4430   29.1390 N.3    26  GLN26      -0.1231
     54  CA        42.2670  104.4210   29.4140 C.3    26  GLN26       0.1698
     55  C         41.2750  104.8650   30.4950 C.2    26  GLN26       0.2592
     56  O         40.0680  104.6730   30.3520 O.2    26  GLN26      -0.2718
     57  CB        42.9390  103.1070   29.8400 C.3    26  GLN26       0.0381
     58  CG        41.9590  102.1110   30.4570 C.3    26  GLN26       0.0905
     59  CD        42.6110  100.8340   30.9610 C.2    26  GLN26       0.2608
     60  OE1       43.7150  100.8530   31.5120 O.2    26  GLN26      -0.2717
     61  NE2       41.9160   99.7120   30.7880 N.am   26  GLN26      -0.0878
     62  N         41.7830  105.4550   31.5740 N.am   27  GLN27      -0.1979
     63  CA        40.9150  105.9080   32.6520 C.3    27  GLN27       0.1601
     64  C         40.0640  107.1330   32.2840 C.2    27  GLN27       0.2287
     65  O         39.2940  107.6200   33.1160 O.2    27  GLN27      -0.2864
     66  CB        41.7220  106.1900   33.9280 C.3    27  GLN27       0.0394
     67  CG        42.3940  104.9580   34.5540 C.3    27  GLN27       0.0908
     68  CD        43.5770  104.4520   33.7490 C.2    27  GLN27       0.2608
     69  OE1       44.3740  105.2330   33.2530 O.2    27  GLN27      -0.2717
     70  NE2       43.7050  103.1420   33.6380 N.am   27  GLN27      -0.0878
     71  N         53.7130  109.0710   37.5790 N.3    83  GLN83      -0.1245
     72  CA        54.3940  107.7920   37.6870 C.3    83  GLN83       0.1566
     73  C         55.2520  107.7410   36.4300 C.2    83  GLN83       0.2260
     74  O         54.7470  107.4950   35.3370 O.2    83  GLN83      -0.2867
     75  CB        53.4110  106.6130   37.6910 C.3    83  GLN83       0.0367
     76  CG        54.1000  105.2510   37.5070 C.3    83  GLN83       0.0905
     77  CD        53.1700  104.0570   37.7070 C.2    83  GLN83       0.2608
     78  OE1       52.0560  104.0280   37.1930 O.2    83  GLN83      -0.2717
     79  NE2       53.6370  103.0610   38.4470 N.am   83  GLN83      -0.0878
     80  N         55.4420  102.6500   34.1570 N.3    86  PRO86      -0.2116
     81  CA        54.5680  101.6610   34.7910 C.3    86  PRO86       0.1372
     82  C         55.3740  100.5020   35.3690 C.2    86  PRO86       0.2244
     83  O         55.3220   99.3790   34.8670 O.2    86  PRO86      -0.2868
     84  CB        53.6500  101.2370   33.6460 C.3    86  PRO86       0.0268
     85  CG        54.5570  101.3050   32.4690 C.3    86  PRO86       0.0207
     86  CD        55.2890  102.6190   32.6930 C.3    86  PRO86       0.0892
     87  N         54.8640   99.0960   38.1430 N.3    88  GLY88      -0.1210
     88  CA        54.0730   98.1970   38.9730 C.3    88  GLY88       0.1956
     89  C         53.0850   98.9050   39.8810 C.2    88  GLY88       0.2612
     90  O         53.3610   99.9890   40.3930 O.2    88  GLY88      -0.2717
     91  N         51.9370   98.2740   40.0950 N.am   89  THR89      -0.1952
     92  CA        50.8920   98.8500   40.9190 C.3    89  THR89       0.1897
     93  C         51.3280   99.1610   42.3550 C.2    89  THR89       0.2313
     94  O         50.9270  100.1770   42.9130 O.2    89  THR89      -0.2863
     95  CB        49.6610   97.9320   40.9270 C.3    89  THR89       0.1794
     96  OG1       48.7410   98.3700   41.9350 O.3    89  THR89      -0.2208
     97  CG2       50.0740   96.4990   41.2020 C.3    89  THR89       0.0378
     98  N         42.1240  100.7990   41.5980 N.3   109  LEU109     -0.1245
     99  CA        42.6180  100.8930   40.2440 C.3   109  LEU109      0.1561
    100  C         41.6950  101.8130   39.4370 C.2   109  LEU109      0.2260
    101  O         40.4670  101.7310   39.5280 O.2   109  LEU109     -0.2867
    102  CB        42.6900   99.4900   39.6390 C.3   109  LEU109      0.0270
    103  CG        43.6120   98.5000   40.3770 C.3   109  LEU109      0.0019
    104  CD1       43.6450   97.1820   39.6370 C.3   109  LEU109      0.0001
    105  CD2       45.0240   99.0870   40.4920 C.3   109  LEU109      0.0001
    106  N         40.7100  101.7440   36.5670 N.3   111  ASP111     -0.1239
    107  CA        39.8170  101.0990   35.6170 C.3   111  ASP111      0.1674
    108  C         38.8460  100.1220   36.2780 C.2   111  ASP111      0.2266
    109  O         38.1620   99.3630   35.5920 O.2   111  ASP111     -0.2867
    110  CB        40.6170  100.3960   34.5080 C.3   111  ASP111      0.1410
    111  CG        41.3700   99.1800   35.0020 C.2   111  ASP111      0.3668
    112  OD1       41.4360   98.9570   36.2290 O.co2 111  ASP111     -0.2456
    113  OD2       41.9130   98.4500   34.1570 O.co2 111  ASP111     -0.2456
    114  N         48.7150   85.9990   38.5290 N.3   163  LYS163     -0.1245
    115  CA        48.5650   85.4080   37.2060 C.3   163  LYS163      0.1561
    116  C         49.1120   83.9810   37.1390 C.2   163  LYS163      0.2260
    117  O         50.0160   83.6890   36.3690 O.2   163  LYS163     -0.2867
    118  CB        49.2860   86.2790   36.1800 C.3   163  LYS163      0.0271
    119  CG        48.7150   87.6790   36.0360 C.3   163  LYS163      0.0035
    120  CD        49.4990   88.4680   34.9930 C.3   163  LYS163      0.0206
    121  CE        48.7360   89.6920   34.5130 C.3   163  LYS163      0.1093
    122  NZ        48.4110   90.6310   35.6220 N.3   163  LYS163     -0.1314
    123  N         58.5160   89.5120   36.1620 N.3   195  ARG195     -0.1245
    124  CA        58.1780   90.3790   35.0380 C.3   195  ARG195      0.1563
    125  C         58.6500   91.8170   35.2390 C.2   195  ARG195      0.2260
    126  O         58.1320   92.7390   34.6100 O.2   195  ARG195     -0.2867
    127  CB        56.6690   90.3630   34.7860 C.3   195  ARG195      0.0307
    128  CG        55.8350   90.9360   35.9140 C.3   195  ARG195      0.0489
    129  CD        54.3560   90.8630   35.5740 C.3   195  ARG195      0.2205
    130  NE        53.5370   91.5970   36.5330 N.pl3 195  ARG195     -0.0865
    131  CZ        52.2330   91.8110   36.3910 C.cat 195  ARG195      0.5346
    132  NH1       51.5950   91.3460   35.3270 N.pl3 195  ARG195      0.1354
    133  NH2       51.5670   92.4920   37.3110 N.pl3 195  ARG195      0.1354
    134  N         58.2180   93.9420   37.6780 N.3   197  GLU197     -0.1245
    135  CA        57.2140   94.8690   38.1830 C.3   197  GLU197      0.1567
    136  C         56.9380   94.6670   39.6730 C.2   197  GLU197      0.2260
    137  O         56.8950   93.5340   40.1560 O.2   197  GLU197     -0.2867
    138  CB        55.9210   94.7360   37.3660 C.3   197  GLU197      0.0388
    139  CG        55.7240   95.8920   36.3800 C.3   197  GLU197      0.1160
    140  CD        54.6460   95.6320   35.3400 C.2   197  GLU197      0.3649
    141  OE1       53.5020   95.2890   35.7160 O.co2 197  GLU197     -0.2457
    142  OE2       54.9430   95.7810   34.1340 O.co2 197  GLU197     -0.2457
    143  N         39.7870   95.6460   30.4380 N.3   228  GLY228     -0.1225
    144  CA        41.0220   95.1160   29.8980 C.3   228  GLY228      0.1811
    145  C         40.9890   94.8910   28.4070 C.2   228  GLY228      0.2280
    146  O         42.0220   94.9880   27.7430 O.2   228  GLY228     -0.2866
@<TRIPOS>BOND
     1    48    47    2
     2    47    46    1
     3    30    29    2
     4    37    36    2
     5    32    31    1
     6    46    45    1
     7    46    49    1
     8    36    45   am
     9    36    35    1
    10    29    28    1
    11    29    34   am
    12    49    50    1
    13    35    34    1
    14    35    38    1
    15    28    31    1
    16    28    27    1
    17    31    33    1
    18    52    50    1
    19    26    25    2
    20    50    51    1
    21    38    39    1
    22    27    25   am
    23    39    40    1
    24    25    24    1
    25    40    41    1
    26    20    19    2
    27   146   145    2
    28   145   144    1
    29    24    23    1
    30    19    23   am
    31    19    18    1
    32    41    42    2
    33    43    42    1
    34    21    22    1
    35    21    18    1
    36    53    54    1
    37    42    44    1
    38    18    17    1
    39    54    57    1
    40    54    55    1
    41    57    58    1
    42   144   143    1
    43    56    55    2
    44    58    59    1
    45    55    62   am
    46    61    59   am
    47    17    15   am
    48    59    60    2
    49    16    15    2
    50    15    14    1
    51    62    63    1
    52    64    63    1
    53    64    65    2
    54    85    86    1
    55    85    84    1
    56    63    66    1
    57    86    80    1
    58    14    13    1
    59    69    68    2
    60    12    11    2
    61    70    68   am
    62    84    81    1
    63    13    11   am
    64    68    67    1
    65    11    10    1
    66    66    67    1
    67   142   140   ar
    68   113   111   ar
    69    80    81    1
    70   110   111    1
    71   110   107    1
    72   121   120    1
    73   121   122    1
    74   126   125    2
    75    10     9    1
    76   127   124    1
    77   127   128    1
    78    81    82    1
    79    83    82    2
    80   120   119    1
    81   111   112   ar
    82   124   125    1
    83   124   123    1
    84   132   131    1
    85    74    73    2
    86   140   141   ar
    87   140   139    1
    88   129   128    1
    89   129   130    1
    90   109   108    2
    91   107   108    1
    92   107   106    1
    93   119   118    1
    94   118   115    1
    95   117   116    2
    96   139   138    1
    97   131   130    2
    98   131   133    1
    99    73    72    1
   100   116   115    1
   101    78    77    2
   102   115   114    1
   103   138   135    1
   104    76    75    1
   105    76    77    1
   106    71    72    1
   107   134   135    1
   108    72    75    1
   109    77    79   am
   110    87    88    1
   111   135   136    1
   112     4     3    2
   113     3     2    1
   114    88    89    1
   115   100   101    2
   116   100    99    1
   117   104   103    1
   118   102    99    1
   119   102   103    1
   120   136   137    2
   121     6     7    1
   122     6     8    1
   123     6     5    1
   124    89    91   am
   125    89    90    2
   126    91    92    1
   127     2     5    1
   128     2     1    1
   129    99    98    1
   130   103   105    1
   131    92    95    1
   132    92    93    1
   133    95    97    1
   134    95    96    1
   135    93    94    2
