@<TRIPOS>MOLECULE
tmp/1mp8A00.pdb
 179 169 0 0 0
SMALL
GASTEIGER

@<TRIPOS>ATOM
      1  N         38.2610   -1.4190   32.8080 N.3    15  ILE15      -0.1231
      2  CA        38.3760   -0.3300   31.8480 C.3    15  ILE15       0.1692
      3  C         37.1800   -0.2220   30.9390 C.2    15  ILE15       0.2593
      4  O         37.1320    0.6570   30.0720 O.2    15  ILE15      -0.2718
      5  CB        39.6330   -0.4870   31.0030 C.3    15  ILE15       0.0266
      6  CG1       39.5950   -1.7980   30.2090 C.3    15  ILE15       0.0019
      7  CG2       40.8970   -0.3970   31.8880 C.3    15  ILE15       0.0020
      8  CD1       40.6190   -1.7920   29.0990 C.3    15  ILE15       0.0001
      9  N         36.1900   -1.0620   31.1390 N.am   16  GLY16      -0.1942
     10  CA        35.0670   -1.0390   30.2490 C.3    16  GLY16       0.2014
     11  C         34.1800   -2.2240   30.4520 C.2    16  GLY16       0.2639
     12  O         34.4930   -3.1250   31.2360 O.2    16  GLY16      -0.2714
     13  N         33.0950   -2.2510   29.6950 N.am   17  GLU17      -0.1963
     14  CA        32.0790   -3.2710   29.8460 C.3    17  GLU17       0.1733
     15  C         31.5650   -3.7390   28.4750 C.2    17  GLU17       0.2617
     16  O         31.1820   -2.9170   27.6350 O.2    17  GLU17      -0.2715
     17  CB        31.0030   -2.6610   30.7450 C.3    17  GLU17       0.0429
     18  CG        29.6400   -3.3100   30.8280 C.3    17  GLU17       0.1163
     19  CD        28.7780   -2.5990   31.8840 C.2    17  GLU17       0.3649
     20  OE1       29.3320   -1.7850   32.6820 O.co2  17  GLU17      -0.2457
     21  OE2       27.5660   -2.8630   31.9270 O.co2  17  GLU17      -0.2457
     22  N         31.6020   -5.0490   28.2250 N.am   18  GLY18      -0.1940
     23  CA        31.2040   -5.5490   26.9220 C.3    18  GLY18       0.2014
     24  C         29.9650   -6.3980   27.0130 C.2    18  GLY18       0.2639
     25  O         29.3930   -6.5410   28.0720 O.2    18  GLY18      -0.2714
     26  N         29.5850   -6.9810   25.8970 N.am   19  GLN19      -0.1963
     27  CA        28.4270   -7.8560   25.8130 C.3    19  GLN19       0.1733
     28  C         28.4660   -8.9510   26.8960 C.2    19  GLN19       0.2616
     29  O         27.4550   -9.2320   27.5670 O.2    19  GLN19      -0.2715
     30  CB        28.4180   -8.4810   24.4120 C.3    19  GLN19       0.0408
     31  CG        27.1070   -9.0640   23.9700 C.3    19  GLN19       0.0908
     32  CD        27.1980   -9.7320   22.5990 C.2    19  GLN19       0.2608
     33  OE1       27.9450   -9.2860   21.7240 O.2    19  GLN19      -0.2717
     34  NE2       26.4580  -10.8220   22.4290 N.am   19  GLN19      -0.0878
     35  N         29.6470   -9.5240   27.0920 N.am   20  PHE20      -0.1974
     36  CA        29.8080  -10.7010   27.9330 C.3    20  PHE20       0.1639
     37  C         30.3300  -10.4690   29.3430 C.2    20  PHE20       0.2290
     38  O         30.2760  -11.3800   30.1790 O.2    20  PHE20      -0.2864
     39  CB        30.7690  -11.6820   27.2350 C.3    20  PHE20       0.0560
     40  CG        30.2970  -12.1640   25.8760 C.ar   20  PHE20      -0.0200
     41  CD1       30.6740  -11.4970   24.6990 C.ar   20  PHE20      -0.0042
     42  CD2       29.4870  -13.2800   25.7670 C.ar   20  PHE20      -0.0042
     43  CE1       30.2460  -11.9670   23.4570 C.ar   20  PHE20      -0.0003
     44  CE2       29.0490  -13.7540   24.5210 C.ar   20  PHE20      -0.0003
     45  CZ        29.4260  -13.0970   23.3700 C.ar   20  PHE20      -0.0000
     46  N         35.6740   -5.6090   31.1590 N.3    23  VAL23      -0.1245
     47  CA        36.9460   -5.6700   30.4870 C.3    23  VAL23       0.1561
     48  C         37.9170   -5.0200   31.4360 C.2    23  VAL23       0.2260
     49  O         37.5980   -3.9710   31.9960 O.2    23  VAL23      -0.2867
     50  CB        36.8760   -4.7910   29.2070 C.3    23  VAL23       0.0252
     51  CG1       38.2170   -4.7980   28.5140 C.3    23  VAL23       0.0019
     52  CG2       35.8250   -5.4300   28.2830 C.3    23  VAL23       0.0019
     53  N         44.5470   -5.8960   27.3820 N.3    37  ALA37      -0.1245
     54  CA        43.1800   -5.7550   27.8380 C.3    37  ALA37       0.1562
     55  C         42.7260   -7.1790   28.0040 C.2    37  ALA37       0.2260
     56  O         43.0850   -8.0520   27.1820 O.2    37  ALA37      -0.2867
     57  CB        42.2950   -5.0170   26.8000 C.3    37  ALA37       0.0290
     58  N         39.3330   -9.3480   28.4170 N.3    39  LYS39      -0.1245
     59  CA        37.8930   -9.3930   28.3020 C.3    39  LYS39       0.1561
     60  C         37.4000  -10.5880   29.0940 C.2    39  LYS39       0.2260
     61  O         37.9010  -11.6790   28.9350 O.2    39  LYS39      -0.2867
     62  CB        37.4600   -9.4880   26.8300 C.3    39  LYS39       0.0271
     63  CG        37.9380   -8.2750   26.0340 C.3    39  LYS39       0.0035
     64  CD        37.5470   -8.3170   24.5870 C.3    39  LYS39       0.0206
     65  CE        36.0450   -8.3060   24.4270 C.3    39  LYS39       0.1093
     66  NZ        35.5790   -7.9970   23.0210 N.3    39  LYS39      -0.1314
     67  N         31.3520  -16.2550   23.0190 N.3    53  PHE53      -0.1241
     68  CA        32.3920  -15.3450   23.4820 C.3    53  PHE53       0.1605
     69  C         33.7130  -15.5840   22.7400 C.2    53  PHE53       0.2264
     70  O         34.3390  -14.6510   22.2100 O.2    53  PHE53      -0.2867
     71  CB        32.6460  -15.5920   24.9670 C.3    53  PHE53       0.0534
     72  CG        33.6570  -14.6430   25.5840 C.ar   53  PHE53      -0.0203
     73  CD1       33.4960  -13.2850   25.5110 C.ar   53  PHE53      -0.0042
     74  CD2       34.7270  -15.1340   26.2950 C.ar   53  PHE53      -0.0042
     75  CE1       34.4390  -12.4150   26.1070 C.ar   53  PHE53      -0.0003
     76  CE2       35.6460  -14.2720   26.8880 C.ar   53  PHE53      -0.0003
     77  CZ        35.5000  -12.9210   26.7990 C.ar   53  PHE53      -0.0000
     78  N         34.6790  -14.3380   19.2490 N.3    56  GLU56      -0.1245
     79  CA        35.3500  -13.0540   19.0250 C.3    56  GLU56       0.1567
     80  C         36.8420  -13.2520   18.7490 C.2    56  GLU56       0.2260
     81  O         37.4490  -12.6000   17.8760 O.2    56  GLU56      -0.2867
     82  CB        35.1780  -12.1280   20.2520 C.3    56  GLU56       0.0388
     83  CG        33.7580  -11.5960   20.4180 C.3    56  GLU56       0.1160
     84  CD        33.5570  -10.8070   21.7110 C.2    56  GLU56       0.3649
     85  OE1       32.5070  -10.1400   21.8730 O.co2  56  GLU56      -0.2457
     86  OE2       34.4590  -10.8470   22.5600 O.co2  56  GLU56      -0.2457
     87  N         42.6500   -3.8060   16.3540 N.3    69  VAL69      -0.1245
     88  CA        43.0770   -4.3670   17.6330 C.3    69  VAL69       0.1561
     89  C         43.4690   -5.8150   17.4750 C.2    69  VAL69       0.2260
     90  O         42.7480   -6.6120   16.8700 O.2    69  VAL69      -0.2867
     91  CB        41.9830   -4.1700   18.7000 C.3    69  VAL69       0.0252
     92  CG1       40.7980   -5.0100   18.3980 C.3    69  VAL69       0.0019
     93  CG2       42.5090   -4.5460   20.0730 C.3    69  VAL69       0.0019
     94  N         43.6600   -9.2050   24.7090 N.3    84  MET84      -0.1230
     95  CA        43.8260   -8.3810   23.5130 C.3    84  MET84       0.1702
     96  C         44.8750   -7.3170   23.7430 C.2    84  MET84       0.2592
     97  O         45.1810   -6.9600   24.8920 O.2    84  MET84      -0.2718
     98  CB        42.5110   -7.6230   23.2200 C.3    84  MET84       0.0401
     99  CG        41.2740   -8.5150   23.1790 C.3    84  MET84       0.0596
    100  SD        41.2590   -9.4600   21.6280 S.3    84  MET84      -0.1393
    101  CE        41.1070   -8.1580   20.3300 C.3    84  MET84       0.0692
    102  N         45.3850   -6.7290   22.6610 N.am   85  GLU85      -0.1966
    103  CA        46.3170   -5.6280   22.8310 C.3    85  GLU85       0.1733
    104  C         45.5910   -4.5170   23.5310 C.2    85  GLU85       0.2616
    105  O         44.4420   -4.2790   23.2820 O.2    85  GLU85      -0.2715
    106  CB        46.9340   -5.2060   21.4690 C.3    85  GLU85       0.0429
    107  CG        46.2950   -4.1060   20.6660 C.3    85  GLU85       0.1163
    108  CD        46.7580   -4.1700   19.1950 C.2    85  GLU85       0.3649
    109  OE1       46.0420   -3.8160   18.3020 O.co2  85  GLU85      -0.2457
    110  OE2       47.8470   -4.7030   18.9480 O.co2  85  GLU85      -0.2457
    111  N         46.2390   -3.8090   24.4430 N.am   86  LEU86      -0.1963
    112  CA        45.4980   -2.7640   25.1230 C.3    86  LEU86       0.1728
    113  C         45.5370   -1.5000   24.2890 C.2    86  LEU86       0.2616
    114  O         46.5910   -1.0990   23.8310 O.2    86  LEU86      -0.2715
    115  CB        46.1620   -2.4190   26.4510 C.3    86  LEU86       0.0311
    116  CG        45.5450   -1.3190   27.3250 C.3    86  LEU86       0.0022
    117  CD1       44.1710   -1.7180   27.8180 C.3    86  LEU86       0.0001
    118  CD2       46.4650   -1.0800   28.5040 C.3    86  LEU86       0.0001
    119  N         44.3880   -0.8790   24.1400 N.am   87  CYS87      -0.1954
    120  CA        44.3090    0.4630   23.5140 C.3    87  CYS87       0.1843
    121  C         44.0430    1.3440   24.7090 C.2    87  CYS87       0.2626
    122  O         42.8980    1.5430   25.1330 O.2    87  CYS87      -0.2714
    123  CB        43.1870    0.5120   22.4890 C.3    87  CYS87       0.0997
    124  SG        43.5160   -0.5610   21.0950 S.3    87  CYS87      -0.0797
    125  N         45.1380    1.8460   25.2720 N.am   88  THR88      -0.1950
    126  CA        45.0850    2.4370   26.6010 C.3    88  THR88       0.1897
    127  C         44.1570    3.6420   26.7870 C.2    88  THR88       0.2313
    128  O         43.5570    3.8080   27.8330 O.2    88  THR88      -0.2863
    129  CB        46.5200    2.6990   27.2000 C.3    88  THR88       0.1794
    130  OG1       46.7870    4.0900   27.2120 O.3    88  THR88      -0.2208
    131  CG2       47.6660    2.0750   26.3860 C.3    88  THR88       0.0378
    132  N         41.3100    4.0720   25.4630 N.3    90  GLY90      -0.1210
    133  CA        39.9230    3.6670   25.5170 C.3    90  GLY90       0.1956
    134  C         39.0540    4.0010   24.3200 C.2    90  GLY90       0.2611
    135  O         39.5400    4.1840   23.2210 O.2    90  GLY90      -0.2717
    136  N         37.7690    4.0780   24.5740 N.am   91  GLU91      -0.1979
    137  CA        36.7630    4.2970   23.5490 C.3    91  GLU91       0.1602
    138  C         36.9000    5.6550   22.8580 C.2    91  GLU91       0.2287
    139  O         37.0280    6.6590   23.4930 O.2    91  GLU91      -0.2864
    140  CB        35.3620    4.1300   24.1850 C.3    91  GLU91       0.0415
    141  CG        35.1370    2.7660   24.8280 C.3    91  GLU91       0.1163
    142  CD        33.9330    2.7540   25.7830 C.2    91  GLU91       0.3649
    143  OE1       33.7140    1.7310   26.4700 O.co2  91  GLU91      -0.2457
    144  OE2       33.1980    3.7710   25.8480 O.co2  91  GLU91      -0.2457
    145  N         31.7900    4.3920   18.2550 N.3   135  ARG135     -0.1231
    146  CA        31.7560    3.5790   19.4740 C.3   135  ARG135      0.1694
    147  C         32.5760    2.2770   19.3500 C.2   135  ARG135      0.2592
    148  O         32.9420    1.6440   20.3610 O.2   135  ARG135     -0.2718
    149  CB        30.3170    3.2350   19.8640 C.3   135  ARG135      0.0321
    150  CG        29.7480    2.0770   19.1150 C.3   135  ARG135      0.0489
    151  CD        28.2140    1.9670   19.1580 C.3   135  ARG135      0.2205
    152  NE        27.7950    0.9570   18.2020 N.pl3 135  ARG135     -0.0865
    153  CZ        27.1120    1.1630   17.0740 C.cat 135  ARG135      0.5346
    154  NH1       26.6750    2.3680   16.7150 N.pl3 135  ARG135      0.1354
    155  NH2       26.8310    0.1170   16.3140 N.pl3 135  ARG135      0.1354
    156  N         32.9030    1.8830   18.1340 N.am  136  ASN136     -0.1974
    157  CA        33.6120    0.6190   17.9100 C.3   136  ASN136      0.1688
    158  C         35.0770    0.8480   17.5570 C.2   136  ASN136      0.2292
    159  O         35.7260    0.0030   16.9620 O.2   136  ASN136     -0.2864
    160  CB        32.8420   -0.2420   16.8970 C.3   136  ASN136      0.1181
    161  CG        31.4540   -0.6230   17.4450 C.2   136  ASN136      0.2629
    162  OD1       31.3360   -0.8450   18.6460 O.2   136  ASN136     -0.2716
    163  ND2       30.4300   -0.6520   16.6070 N.am  136  ASN136     -0.0877
    164  N         38.8520    2.1220   19.1260 N.3   138  LEU138     -0.1245
    165  CA        39.6180    2.3410   20.3630 C.3   138  LEU138      0.1561
    166  C         40.8060    3.2270   20.0900 C.2   138  LEU138      0.2260
    167  O         41.2580    3.3640   18.9620 O.2   138  LEU138     -0.2867
    168  CB        40.1320    1.0100   20.8710 C.3   138  LEU138      0.0270
    169  CG        39.0180   -0.0060   21.1390 C.3   138  LEU138      0.0019
    170  CD1       39.6530   -1.3700   21.4250 C.3   138  LEU138      0.0001
    171  CD2       38.1850    0.4390   22.3270 C.3   138  LEU138      0.0001
    172  N         36.8330   -4.8670   18.4830 N.3   149  ASP149     -0.1239
    173  CA        36.2270   -6.2110   18.3180 C.3   149  ASP149      0.1674
    174  C         37.2420   -7.3280   18.1960 C.2   149  ASP149      0.2266
    175  O         38.0280   -7.6010   19.0960 O.2   149  ASP149     -0.2867
    176  CB        35.2680   -6.3180   17.1230 C.3   149  ASP149      0.1410
    177  CG        34.2690   -5.2510   17.1230 C.2   149  ASP149      0.3668
    178  OD1       33.8080   -4.8480   16.0250 O.co2 149  ASP149     -0.2456
    179  OD2       33.8810   -4.7420   18.1620 O.co2 149  ASP149     -0.2456
@<TRIPOS>BOND
     1   178   177   ar
     2   155   153    1
     3    87    88    1
     4   163   161   am
     5   154   153    1
     6    90    89    2
     7   160   161    1
     8   160   157    1
     9   159   158    2
    10   153   152    2
    11   177   176    1
    12   177   179   ar
    13   176   173    1
    14   161   162    2
    15    89    88    1
    16   158   157    1
    17    88    91    1
    18    81    80    2
    19   157   156    1
    20   156   147   am
    21   174   173    1
    22   174   175    2
    23   152   151    1
    24   145   146    1
    25   109   108   ar
    26   173   172    1
    27    92    91    1
    28    91    93    1
    29    80    79    1
    30   110   108   ar
    31   167   166    2
    32    79    78    1
    33    79    82    1
    34   150   151    1
    35   150   149    1
    36   164   165    1
    37   108   107    1
    38   147   146    1
    39   147   148    2
    40   146   149    1
    41   166   165    1
    42    82    83    1
    43   101   100    1
    44   165   168    1
    45    83    84    1
    46   107   106    1
    47   168   169    1
    48   124   123    1
    49   169   170    1
    50   169   171    1
    51   106   103    1
    52   100    99    1
    53    84    85   ar
    54    84    86   ar
    55    33    32    2
    56    70    69    2
    57    34    32   am
    58   123   120    1
    59    32    31    1
    60   102   103    1
    61   102    96   am
    62    69    68    1
    63   103   104    1
    64   138   139    2
    65   138   137    1
    66    67    68    1
    67    66    65    1
    68    99    98    1
    69    98    95    1
    70   135   134    2
    71   105   104    2
    72    45    43   ar
    73    45    44   ar
    74    43    41   ar
    75    68    71    1
    76    95    96    1
    77    95    94    1
    78   120   119    1
    79   120   121    1
    80   104   111   am
    81   137   140    1
    82   137   136    1
    83    96    97    2
    84   114   113    2
    85    31    30    1
    86   119   113   am
    87   140   141    1
    88   113   112    1
    89   134   136   am
    90   134   133    1
    91    30    27    1
    92    65    64    1
    93   111   112    1
    94    44    42   ar
    95    64    63    1
    96    41    40   ar
    97   121   122    2
    98   121   125   am
    99   141   142    1
   100    71    72    1
   101   112   115    1
   102   125   126    1
   103   132   133    1
   104    73    72   ar
   105    73    75   ar
   106    72    74   ar
   107    42    40   ar
   108   142   144   ar
   109   142   143   ar
   110    27    26    1
   111    27    28    1
   112    40    39    1
   113    26    24   am
   114    63    62    1
   115    75    77   ar
   116    74    76   ar
   117   131   129    1
   118   115   116    1
   119   126   127    1
   120   126   129    1
   121   127   128    2
   122    77    76   ar
   123    57    54    1
   124    62    59    1
   125    28    35   am
   126    28    29    2
   127    23    24    1
   128    23    22    1
   129    24    25    2
   130    35    36    1
   131    56    55    2
   132   129   130    1
   133    39    36    1
   134   116   117    1
   135   116   118    1
   136    53    54    1
   137    16    15    2
   138    54    55    1
   139    36    37    1
   140    22    15   am
   141    52    50    1
   142    59    58    1
   143    59    60    1
   144    15    14    1
   145    51    50    1
   146    61    60    2
   147     8     6    1
   148    50    47    1
   149    37    38    2
   150    13    14    1
   151    13    11   am
   152    14    17    1
   153     4     3    2
   154     6     5    1
   155    10    11    1
   156    10     9    1
   157    11    12    2
   158    47    46    1
   159    47    48    1
   160    17    18    1
   161    18    19    1
   162     3     9   am
   163     3     2    1
   164     5     2    1
   165     5     7    1
   166    48    49    2
   167     2     1    1
   168    19    21   ar
   169    19    20   ar
