@<TRIPOS>MOLECULE
tmp/1mpmC00.pdb
 158 153 0 0 0
SMALL
GASTEIGER

@<TRIPOS>ATOM
      1  N         -5.8700   25.6370   71.9440 N.3     5  GLY5       -0.1210
      2  CA        -6.4290   25.5790   73.2820 C.3     5  GLY5        0.1956
      3  C         -7.6460   24.7030   73.4540 C.2     5  GLY5        0.2611
      4  O         -7.8940   23.7930   72.6550 O.2     5  GLY5       -0.2717
      5  N         -8.4040   24.9480   74.5230 N.am    6  TYR6       -0.1976
      6  CA        -9.6160   24.1820   74.8510 C.3     6  TYR6        0.1639
      7  C        -10.4540   25.1160   75.6730 C.2     6  TYR6        0.2290
      8  O         -9.9080   25.9210   76.3960 O.2     6  TYR6       -0.2864
      9  CB        -9.2700   22.9710   75.7110 C.3     6  TYR6        0.0560
     10  CG       -10.5080   22.3170   76.2940 C.ar    6  TYR6       -0.0198
     11  CD1      -11.0770   22.7850   77.4830 C.ar    6  TYR6       -0.0009
     12  CD2      -11.2130   21.3350   75.5790 C.ar    6  TYR6       -0.0009
     13  CE1      -12.3060   22.3100   77.9150 C.ar    6  TYR6        0.0417
     14  CE2      -12.4530   20.8580   76.0270 C.ar    6  TYR6        0.0417
     15  CZ       -12.9880   21.3590   77.1890 C.ar    6  TYR6        0.1957
     16  OH       -14.2220   20.9570   77.6040 O.3     6  TYR6       -0.2866
     17  N        -14.7080   25.5580   77.4800 N.3     8  ARG8       -0.1245
     18  CA       -16.1220   25.1590   77.5750 C.3     8  ARG8        0.1563
     19  C        -16.7110   26.2540   78.4340 C.2     8  ARG8        0.2260
     20  O        -16.0040   26.8230   79.2490 O.2     8  ARG8       -0.2867
     21  CB       -16.3110   23.7970   78.2160 C.3     8  ARG8        0.0307
     22  CG       -15.9960   23.7530   79.6560 C.3     8  ARG8        0.0489
     23  CD       -15.9530   22.3230   80.1380 C.3     8  ARG8        0.2205
     24  NE       -15.3510   22.2660   81.4500 N.pl3   8  ARG8       -0.0865
     25  CZ       -14.2640   21.5680   81.7410 C.cat   8  ARG8        0.5346
     26  NH1      -13.6380   20.8510   80.8280 N.pl3   8  ARG8        0.1354
     27  NH2      -13.7900   21.5770   82.9670 N.pl3   8  ARG8        0.1354
     28  N        -19.6100   13.8240   81.6230 N.3    33  ARG33      -0.1245
     29  CA       -19.7100   15.2500   81.3060 C.3    33  ARG33       0.1563
     30  C        -20.8570   15.8770   80.5830 C.2    33  ARG33       0.2260
     31  O        -21.1200   17.0630   80.7950 O.2    33  ARG33      -0.2867
     32  CB       -18.4750   15.8020   80.5550 C.3    33  ARG33       0.0307
     33  CG       -17.4930   14.8140   80.0320 C.3    33  ARG33       0.0489
     34  CD       -16.5540   15.2620   78.8990 C.3    33  ARG33       0.2205
     35  NE       -15.9360   16.5600   79.0790 N.pl3  33  ARG33      -0.0865
     36  CZ       -14.6400   16.8190   78.9240 C.cat  33  ARG33       0.5346
     37  NH1      -13.7640   15.8710   78.6170 N.pl3  33  ARG33       0.1354
     38  NH2      -14.2340   18.0750   78.9660 N.pl3  33  ARG33       0.1354
     39  N        -13.9320   26.5940   81.7520 N.3    41  TYR41      -0.1241
     40  CA       -12.5390   26.1990   81.8450 C.3    41  TYR41       0.1605
     41  C        -11.9150   26.5170   80.5070 C.2    41  TYR41       0.2264
     42  O        -12.5200   26.2420   79.5100 O.2    41  TYR41      -0.2867
     43  CB       -12.4280   24.7110   82.0880 C.3    41  TYR41       0.0534
     44  CG       -10.9940   24.2940   82.1330 C.ar   41  TYR41      -0.0201
     45  CD1      -10.1720   24.7230   83.1640 C.ar   41  TYR41      -0.0009
     46  CD2      -10.4450   23.5080   81.1310 C.ar   41  TYR41      -0.0009
     47  CE1       -8.8360   24.3870   83.1980 C.ar   41  TYR41       0.0417
     48  CE2       -9.1000   23.1660   81.1620 C.ar   41  TYR41       0.0417
     49  CZ        -8.3150   23.6200   82.1980 C.ar   41  TYR41       0.1957
     50  OH        -6.9810   23.3690   82.2210 O.3    41  TYR41      -0.2866
     51  N         -7.9840   26.7150   78.1990 N.3    43  GLU43      -0.1245
     52  CA        -6.5190   26.7020   78.1040 C.3    43  GLU43       0.1567
     53  C         -6.1830   27.5040   76.8510 C.2    43  GLU43       0.2260
     54  O         -6.7000   27.1820   75.8050 O.2    43  GLU43      -0.2867
     55  CB        -6.0110   25.2900   77.9390 C.3    43  GLU43       0.0388
     56  CG        -6.3670   24.4380   79.1020 C.3    43  GLU43       0.1160
     57  CD        -5.8160   23.0650   79.0050 C.2    43  GLU43       0.3649
     58  OE1       -5.3450   22.6670   77.9140 O.co2  43  GLU43      -0.2457
     59  OE2       -5.8730   22.3320   80.0050 O.co2  43  GLU43      -0.2457
     60  N          0.5380   26.3250   83.0310 N.3    82  ARG82      -0.1245
     61  CA         0.8230   24.9050   82.8810 C.3    82  ARG82       0.1563
     62  C          1.8790   24.4130   81.9260 C.2    82  ARG82       0.2260
     63  O          2.3550   23.2910   82.1160 O.2    82  ARG82      -0.2867
     64  CB        -0.4680   24.1440   82.6350 C.3    82  ARG82       0.0307
     65  CG        -1.5330   24.6670   83.5400 C.3    82  ARG82       0.0489
     66  CD        -2.7730   23.8950   83.4360 C.3    82  ARG82       0.2205
     67  NE        -2.5030   22.5170   83.7790 N.pl3  82  ARG82      -0.0865
     68  CZ        -3.4430   21.5810   83.7970 C.cat  82  ARG82       0.5346
     69  NH1       -4.7030   21.8950   83.5030 N.pl3  82  ARG82       0.1354
     70  NH2       -3.1140   20.3160   84.0360 N.pl3  82  ARG82       0.1354
     71  N          2.5500   19.1580   78.8020 N.3   106  PHE106     -0.1241
     72  CA         1.4960   18.1430   78.9190 C.3   106  PHE106      0.1605
     73  C          2.0830   16.9870   78.0790 C.2   106  PHE106      0.2264
     74  O          1.9380   16.9970   76.8870 O.2   106  PHE106     -0.2867
     75  CB         0.2040   18.5740   78.2080 C.3   106  PHE106      0.0534
     76  CG        -0.6690   19.5590   78.9650 C.ar  106  PHE106     -0.0203
     77  CD1       -0.3710   19.9810   80.2680 C.ar  106  PHE106     -0.0042
     78  CD2       -1.8170   20.0430   78.3740 C.ar  106  PHE106     -0.0042
     79  CE1       -1.1820   20.8460   80.9440 C.ar  106  PHE106     -0.0003
     80  CE2       -2.6470   20.9180   79.0410 C.ar  106  PHE106     -0.0003
     81  CZ        -2.3250   21.3250   80.3410 C.ar  106  PHE106     -0.0000
     82  N         -0.4710   12.5830   77.2420 N.3   109  ARG109     -0.1245
     83  CA        -1.5100   12.1400   78.1360 C.3   109  ARG109      0.1563
     84  C         -2.6070   11.3310   77.4860 C.2   109  ARG109      0.2260
     85  O         -3.0490   11.6600   76.4060 O.2   109  ARG109     -0.2867
     86  CB        -2.0780   13.2890   78.9730 C.3   109  ARG109      0.0307
     87  CG        -2.0810   14.5880   78.3350 C.3   109  ARG109      0.0489
     88  CD        -1.6080   15.6190   79.2640 C.3   109  ARG109      0.2205
     89  NE        -2.7110   16.4330   79.7670 N.pl3 109  ARG109     -0.0865
     90  CZ        -3.5540   17.1870   79.0490 C.cat 109  ARG109      0.5346
     91  NH1       -3.4760   17.2340   77.7440 N.pl3 109  ARG109      0.1354
     92  NH2       -4.3940   18.0340   79.6390 N.pl3 109  ARG109      0.1354
     93  N         -6.5430    9.9430   77.8350 N.3   111  ASP111     -0.1239
     94  CA        -7.7510   10.2040   78.6000 C.3   111  ASP111      0.1674
     95  C         -8.9640    9.5940   77.9320 C.2   111  ASP111      0.2266
     96  O         -8.8580    9.1200   76.8110 O.2   111  ASP111     -0.2867
     97  CB        -7.9900   11.6800   78.6880 C.3   111  ASP111      0.1410
     98  CG        -8.3270   12.2780   77.3600 C.2   111  ASP111      0.3668
     99  OD1       -7.5560   12.0100   76.4100 O.co2 111  ASP111     -0.2456
    100  OD2       -9.3490   13.0050   77.2350 O.co2 111  ASP111     -0.2456
    101  N        -12.5230   10.8120   76.9130 N.3   113  HIS113     -0.1241
    102  CA       -13.2520   12.0450   76.8050 C.3   113  HIS113      0.1621
    103  C        -14.5700   12.1570   77.5140 C.2   113  HIS113      0.2264
    104  O        -14.7980   13.1470   78.2040 O.2   113  HIS113     -0.2867
    105  CB       -13.4160   12.4440   75.3220 C.3   113  HIS113      0.0745
    106  CG       -14.2230   13.6720   75.1180 C.ar  113  HIS113      0.0817
    107  ND1      -13.6630   14.9280   75.1300 N.ar  113  HIS113     -0.2268
    108  CD2      -15.5620   13.8570   75.0370 C.ar  113  HIS113      0.1154
    109  CE1      -14.6200   15.8360   75.0820 C.ar  113  HIS113      0.1986
    110  NE2      -15.7950   15.2050   75.0220 N.ar  113  HIS113     -0.2212
    111  N        -14.0550   12.6280   81.0250 N.3   116  ASP116     -0.1239
    112  CA       -12.9960   13.5940   81.2640 C.3   116  ASP116      0.1674
    113  C        -12.0570   13.0000   82.2690 C.2   116  ASP116      0.2266
    114  O        -11.6130   13.6810   83.1560 O.2   116  ASP116     -0.2867
    115  CB       -13.6010   14.8820   81.7820 C.3   116  ASP116      0.1410
    116  CG       -12.6170   16.0540   81.7980 C.2   116  ASP116      0.3668
    117  OD1      -11.5650   15.9850   81.1300 O.co2 116  ASP116     -0.2456
    118  OD2      -12.9050   17.0820   82.4750 O.co2 116  ASP116     -0.2456
    119  N         -8.3680   11.2560   82.9280 N.3   118  TYR118     -0.1241
    120  CA        -7.0520   10.9750   82.4060 C.3   118  TYR118      0.1605
    121  C         -6.5020    9.7810   83.1200 C.2   118  TYR118      0.2264
    122  O         -6.3250    9.8490   84.3230 O.2   118  TYR118     -0.2867
    123  CB        -6.1070   12.0980   82.6900 C.3   118  TYR118      0.0534
    124  CG        -6.3280   13.1720   81.7350 C.ar  118  TYR118     -0.0201
    125  CD1       -7.4770   13.9470   81.8210 C.ar  118  TYR118     -0.0009
    126  CD2       -5.4450   13.3750   80.6780 C.ar  118  TYR118     -0.0009
    127  CE1       -7.7710   14.9010   80.8900 C.ar  118  TYR118      0.0417
    128  CE2       -5.7140   14.3150   79.7360 C.ar  118  TYR118      0.0417
    129  CZ        -6.8870   15.0780   79.8460 C.ar  118  TYR118      0.1957
    130  OH        -7.1960   16.0110   78.8870 O.3   118  TYR118     -0.2866
    131  N        -16.5510   13.8810   67.3320 N.3   358  TRP358     -0.1241
    132  CA       -15.3280   14.5500   67.7660 C.3   358  TRP358      0.1605
    133  C        -15.2020   15.9760   67.2130 C.2   358  TRP358      0.2264
    134  O        -14.2070   16.6590   67.4500 O.2   358  TRP358     -0.2867
    135  CB       -14.1300   13.7970   67.2790 C.3   358  TRP358      0.0550
    136  CG       -13.9910   12.4730   67.8730 C.ar  358  TRP358      0.0003
    137  CD1      -14.2320   11.2810   67.2700 C.ar  358  TRP358      0.0946
    138  CD2      -13.5480   12.1720   69.2050 C.ar  358  TRP358      0.0152
    139  NE1      -13.9600   10.2450   68.1330 N.ar  358  TRP358     -0.2442
    140  CE2      -13.5320   10.7620   69.3280 C.ar  358  TRP358      0.0810
    141  CE3      -13.1520   12.9570   70.3060 C.ar  358  TRP358      0.0012
    142  CZ2      -13.1440   10.1140   70.5120 C.ar  358  TRP358      0.0191
    143  CZ3      -12.7700   12.3230   71.4670 C.ar  358  TRP358      0.0001
    144  CH2      -12.7630   10.9080   71.5610 C.ar  358  TRP358      0.0015
    145  N        -12.1790   22.7480   70.9730 N.3   420  TRP420     -0.1241
    146  CA       -10.7340   22.6340   71.0410 C.3   420  TRP420      0.1605
    147  C        -10.3130   23.0770   69.6420 C.2   420  TRP420      0.2264
    148  O        -11.0580   22.9000   68.6880 O.2   420  TRP420     -0.2867
    149  CB       -10.2130   21.2820   71.4350 C.3   420  TRP420      0.0550
    150  CG       -10.8230   20.1200   70.8090 C.ar  420  TRP420      0.0003
    151  CD1      -10.4920   19.5870   69.6000 C.ar  420  TRP420      0.0946
    152  CD2      -11.7250   19.1700   71.4330 C.ar  420  TRP420      0.0152
    153  NE1      -11.1020   18.3480   69.4360 N.ar  420  TRP420     -0.2442
    154  CE2      -11.8520   18.0670   70.5430 C.ar  420  TRP420      0.0810
    155  CE3      -12.4130   19.1390   72.6560 C.ar  420  TRP420      0.0012
    156  CZ2      -12.6340   16.9520   70.8460 C.ar  420  TRP420      0.0191
    157  CZ3      -13.1840   18.0380   72.9470 C.ar  420  TRP420      0.0001
    158  CH2      -13.2830   16.9510   72.0450 C.ar  420  TRP420      0.0015
@<TRIPOS>BOND
     1   133   134    2
     2   133   132    1
     3   137   136   ar
     4   137   139   ar
     5   135   132    1
     6   135   136    1
     7   131   132    1
     8   136   138   ar
     9   139   140   ar
    10   148   147    2
    11   138   140   ar
    12   138   141   ar
    13   140   142   ar
    14   153   151   ar
    15   153   154   ar
    16   151   150   ar
    17   147   146    1
    18   141   143   ar
    19   142   144   ar
    20   154   156   ar
    21   154   152   ar
    22   150   152   ar
    23   150   149    1
    24   156   158   ar
    25   145   146    1
    26   146   149    1
    27   152   155   ar
    28   143   144   ar
    29     1     2    1
    30   158   157   ar
    31     4     3    2
    32   155   157   ar
    33     2     3    1
    34     3     5   am
    35     5     6    1
    36     6     7    1
    37     6     9    1
    38   110   108   ar
    39   110   109   ar
    40   108   106   ar
    41   109   107   ar
    42   106   107   ar
    43   106   105    1
    44   105   102    1
    45    12    14   ar
    46    12    10   ar
    47     7     8    2
    48     9    10    1
    49    54    53    2
    50    14    15   ar
    51    10    11   ar
    52    85    84    2
    53    99    98   ar
    54   102   101    1
    55   102   103    1
    56    96    95    2
    57    53    52    1
    58    74    73    2
    59    15    16    1
    60    15    13   ar
    61   100    98   ar
    62    82    83    1
    63    98    97    1
    64    17    18    1
    65    11    13   ar
    66    84    83    1
    67   103   104    2
    68    18    21    1
    69    18    19    1
    70    91    90    1
    71    93    94    1
    72    58    57   ar
    73    95    94    1
    74    55    52    1
    75    55    56    1
    76    73    72    1
    77    52    51    1
    78    83    86    1
    79    75    72    1
    80    75    76    1
    81    21    22    1
    82    87    86    1
    83    87    88    1
    84    78    76   ar
    85    78    80   ar
    86    19    20    2
    87    94    97    1
    88    37    36    1
    89    71    72    1
    90   130   129    1
    91    34    35    1
    92    34    33    1
    93    36    38    1
    94    36    35    2
    95    76    77   ar
    96    57    56    1
    97    57    59   ar
    98    80    81   ar
    99    90    92    1
   100    90    89    2
   101    88    89    1
   102    42    41    2
   103    22    23    1
   104   128   129   ar
   105   128   126   ar
   106   129   127   ar
   107    33    32    1
   108    23    24    1
   109    77    79   ar
   110    81    79   ar
   111    41    40    1
   112    32    29    1
   113    30    31    2
   114    30    29    1
   115   126   124   ar
   116    26    25    1
   117   127   125   ar
   118   111   112    1
   119   117   116   ar
   120    46    48   ar
   121    46    44   ar
   122    48    49   ar
   123   112   115    1
   124   112   113    1
   125    29    28    1
   126    24    25    2
   127   124   125   ar
   128   124   123    1
   129    25    27    1
   130    39    40    1
   131   115   116    1
   132   116   118   ar
   133    40    43    1
   134    62    63    2
   135    62    61    1
   136    43    44    1
   137    44    45   ar
   138    49    50    1
   139    49    47   ar
   140   113   114    2
   141   120   123    1
   142   120   119    1
   143   120   121    1
   144    64    61    1
   145    64    65    1
   146    61    60    1
   147   121   122    2
   148    45    47   ar
   149    66    65    1
   150    66    67    1
   151    69    68    1
   152    67    68    2
   153    68    70    1
