@<TRIPOS>MOLECULE
tmp/1mpmC01.pdb
 108 99 0 0 0
SMALL
GASTEIGER

@<TRIPOS>ATOM
      1  N        -14.7080   25.5580   77.4800 N.3     8  ARG8       -0.1245
      2  CA       -16.1220   25.1590   77.5750 C.3     8  ARG8        0.1563
      3  C        -16.7110   26.2540   78.4340 C.2     8  ARG8        0.2260
      4  O        -16.0040   26.8230   79.2490 O.2     8  ARG8       -0.2867
      5  CB       -16.3110   23.7970   78.2160 C.3     8  ARG8        0.0307
      6  CG       -15.9960   23.7530   79.6560 C.3     8  ARG8        0.0489
      7  CD       -15.9530   22.3230   80.1380 C.3     8  ARG8        0.2205
      8  NE       -15.3510   22.2660   81.4500 N.pl3   8  ARG8       -0.0865
      9  CZ       -14.2640   21.5680   81.7410 C.cat   8  ARG8        0.5346
     10  NH1      -13.6380   20.8510   80.8280 N.pl3   8  ARG8        0.1354
     11  NH2      -13.7900   21.5770   82.9670 N.pl3   8  ARG8        0.1354
     12  N        -19.6100   13.8240   81.6230 N.3    33  ARG33      -0.1245
     13  CA       -19.7100   15.2500   81.3060 C.3    33  ARG33       0.1563
     14  C        -20.8570   15.8770   80.5830 C.2    33  ARG33       0.2260
     15  O        -21.1200   17.0630   80.7950 O.2    33  ARG33      -0.2867
     16  CB       -18.4750   15.8020   80.5550 C.3    33  ARG33       0.0307
     17  CG       -17.4930   14.8140   80.0320 C.3    33  ARG33       0.0489
     18  CD       -16.5540   15.2620   78.8990 C.3    33  ARG33       0.2205
     19  NE       -15.9360   16.5600   79.0790 N.pl3  33  ARG33      -0.0865
     20  CZ       -14.6400   16.8190   78.9240 C.cat  33  ARG33       0.5346
     21  NH1      -13.7640   15.8710   78.6170 N.pl3  33  ARG33       0.1354
     22  NH2      -14.2340   18.0750   78.9660 N.pl3  33  ARG33       0.1354
     23  N        -18.3860   24.6910   85.2520 N.3    39  GLU39      -0.1245
     24  CA       -17.4520   25.8160   85.2910 C.3    39  GLU39       0.1567
     25  C        -17.0790   26.2180   83.8550 C.2    39  GLU39       0.2260
     26  O        -17.3730   25.4640   82.9070 O.2    39  GLU39      -0.2867
     27  CB       -16.1740   25.4080   86.0290 C.3    39  GLU39       0.0388
     28  CG       -15.3570   24.2800   85.3520 C.3    39  GLU39       0.1160
     29  CD       -16.0740   22.9390   85.2580 C.2    39  GLU39       0.3649
     30  OE1      -16.5870   22.4720   86.2800 O.co2  39  GLU39      -0.2457
     31  OE2      -16.1450   22.3060   84.1730 O.co2  39  GLU39      -0.2457
     32  N        -13.9320   26.5940   81.7520 N.3    41  TYR41      -0.1241
     33  CA       -12.5390   26.1990   81.8450 C.3    41  TYR41       0.1605
     34  C        -11.9150   26.5170   80.5070 C.2    41  TYR41       0.2264
     35  O        -12.5200   26.2420   79.5100 O.2    41  TYR41      -0.2867
     36  CB       -12.4280   24.7110   82.0880 C.3    41  TYR41       0.0534
     37  CG       -10.9940   24.2940   82.1330 C.ar   41  TYR41      -0.0201
     38  CD1      -10.1720   24.7230   83.1640 C.ar   41  TYR41      -0.0009
     39  CD2      -10.4450   23.5080   81.1310 C.ar   41  TYR41      -0.0009
     40  CE1       -8.8360   24.3870   83.1980 C.ar   41  TYR41       0.0417
     41  CE2       -9.1000   23.1660   81.1620 C.ar   41  TYR41       0.0417
     42  CZ        -8.3150   23.6200   82.1980 C.ar   41  TYR41       0.1957
     43  OH        -6.9810   23.3690   82.2210 O.3    41  TYR41      -0.2866
     44  N         -7.9840   26.7150   78.1990 N.3    43  GLU43      -0.1245
     45  CA        -6.5190   26.7020   78.1040 C.3    43  GLU43       0.1567
     46  C         -6.1830   27.5040   76.8510 C.2    43  GLU43       0.2260
     47  O         -6.7000   27.1820   75.8050 O.2    43  GLU43      -0.2867
     48  CB        -6.0110   25.2900   77.9390 C.3    43  GLU43       0.0388
     49  CG        -6.3670   24.4380   79.1020 C.3    43  GLU43       0.1160
     50  CD        -5.8160   23.0650   79.0050 C.2    43  GLU43       0.3649
     51  OE1       -5.3450   22.6670   77.9140 O.co2  43  GLU43      -0.2457
     52  OE2       -5.8730   22.3320   80.0050 O.co2  43  GLU43      -0.2457
     53  N        -10.0190   28.8960   85.1650 N.3    67  SER67      -0.1217
     54  CA       -11.1950   28.1720   85.6240 C.3    67  SER67       0.1889
     55  C        -11.9940   29.1730   86.4440 C.2    67  SER67       0.2288
     56  O        -11.4460   29.7660   87.3540 O.2    67  SER67      -0.2866
     57  CB       -10.7520   27.0150   86.4860 C.3    67  SER67       0.2089
     58  OG       -11.8480   26.1380   86.7020 O.3    67  SER67      -0.2183
     59  N          0.5380   26.3250   83.0310 N.3    82  ARG82      -0.1245
     60  CA         0.8230   24.9050   82.8810 C.3    82  ARG82       0.1563
     61  C          1.8790   24.4130   81.9260 C.2    82  ARG82       0.2260
     62  O          2.3550   23.2910   82.1160 O.2    82  ARG82      -0.2867
     63  CB        -0.4680   24.1440   82.6350 C.3    82  ARG82       0.0307
     64  CG        -1.5330   24.6670   83.5400 C.3    82  ARG82       0.0489
     65  CD        -2.7730   23.8950   83.4360 C.3    82  ARG82       0.2205
     66  NE        -2.5030   22.5170   83.7790 N.pl3  82  ARG82      -0.0865
     67  CZ        -3.4430   21.5810   83.7970 C.cat  82  ARG82       0.5346
     68  NH1       -4.7030   21.8950   83.5030 N.pl3  82  ARG82       0.1354
     69  NH2       -3.1140   20.3160   84.0360 N.pl3  82  ARG82       0.1354
     70  N         -0.4710   12.5830   77.2420 N.3   109  ARG109     -0.1245
     71  CA        -1.5100   12.1400   78.1360 C.3   109  ARG109      0.1563
     72  C         -2.6070   11.3310   77.4860 C.2   109  ARG109      0.2260
     73  O         -3.0490   11.6600   76.4060 O.2   109  ARG109     -0.2867
     74  CB        -2.0780   13.2890   78.9730 C.3   109  ARG109      0.0307
     75  CG        -2.0810   14.5880   78.3350 C.3   109  ARG109      0.0489
     76  CD        -1.6080   15.6190   79.2640 C.3   109  ARG109      0.2205
     77  NE        -2.7110   16.4330   79.7670 N.pl3 109  ARG109     -0.0865
     78  CZ        -3.5540   17.1870   79.0490 C.cat 109  ARG109      0.5346
     79  NH1       -3.4760   17.2340   77.7440 N.pl3 109  ARG109      0.1354
     80  NH2       -4.3940   18.0340   79.6390 N.pl3 109  ARG109      0.1354
     81  N        -14.0550   12.6280   81.0250 N.3   116  ASP116     -0.1239
     82  CA       -12.9960   13.5940   81.2640 C.3   116  ASP116      0.1674
     83  C        -12.0570   13.0000   82.2690 C.2   116  ASP116      0.2266
     84  O        -11.6130   13.6810   83.1560 O.2   116  ASP116     -0.2867
     85  CB       -13.6010   14.8820   81.7820 C.3   116  ASP116      0.1410
     86  CG       -12.6170   16.0540   81.7980 C.2   116  ASP116      0.3668
     87  OD1      -11.5650   15.9850   81.1300 O.co2 116  ASP116     -0.2456
     88  OD2      -12.9050   17.0820   82.4750 O.co2 116  ASP116     -0.2456
     89  N         -8.3680   11.2560   82.9280 N.3   118  TYR118     -0.1241
     90  CA        -7.0520   10.9750   82.4060 C.3   118  TYR118      0.1605
     91  C         -6.5020    9.7810   83.1200 C.2   118  TYR118      0.2264
     92  O         -6.3250    9.8490   84.3230 O.2   118  TYR118     -0.2867
     93  CB        -6.1070   12.0980   82.6900 C.3   118  TYR118      0.0534
     94  CG        -6.3280   13.1720   81.7350 C.ar  118  TYR118     -0.0201
     95  CD1       -7.4770   13.9470   81.8210 C.ar  118  TYR118     -0.0009
     96  CD2       -5.4450   13.3750   80.6780 C.ar  118  TYR118     -0.0009
     97  CE1       -7.7710   14.9010   80.8900 C.ar  118  TYR118      0.0417
     98  CE2       -5.7140   14.3150   79.7360 C.ar  118  TYR118      0.0417
     99  CZ        -6.8870   15.0780   79.8460 C.ar  118  TYR118      0.1957
    100  OH        -7.1960   16.0110   78.8870 O.3   118  TYR118     -0.2866
    101  N         -1.1530   10.2060   82.8160 N.3   121  ASP121     -0.1239
    102  CA        -0.8000   11.6060   82.7080 C.3   121  ASP121      0.1674
    103  C          0.2870   11.9470   83.7050 C.2   121  ASP121      0.2266
    104  O          0.0090   12.1280   84.8870 O.2   121  ASP121     -0.2867
    105  CB        -2.0380   12.4470   83.0000 C.3   121  ASP121      0.1410
    106  CG        -1.7990   13.9090   82.7750 C.2   121  ASP121      0.3668
    107  OD1       -0.6450   14.2950   82.5200 O.co2 121  ASP121     -0.2456
    108  OD2       -2.7640   14.6890   82.8460 O.co2 121  ASP121     -0.2456
@<TRIPOS>BOND
     1    47    46    2
     2    73    72    2
     3    46    45    1
     4    70    71    1
     5     1     2    1
     6    72    71    1
     7     2     5    1
     8     2     3    1
     9    79    78    1
    10    51    50   ar
    11    48    45    1
    12    48    49    1
    13    45    44    1
    14    71    74    1
    15     5     6    1
    16    75    74    1
    17    75    76    1
    18     3     4    2
    19    21    20    1
    20   100    99    1
    21    18    19    1
    22    18    17    1
    23    20    22    1
    24    20    19    2
    25    50    49    1
    26    50    52   ar
    27    78    80    1
    28    78    77    2
    29    76    77    1
    30    35    34    2
    31     6     7    1
    32    98    99   ar
    33    98    96   ar
    34    99    97   ar
    35    17    16    1
    36     7     8    1
    37    34    33    1
    38    16    13    1
    39    14    15    2
    40    14    13    1
    41    96    94   ar
    42    10     9    1
    43    97    95   ar
    44    81    82    1
    45    87    86   ar
    46    39    41   ar
    47    39    37   ar
    48    41    42   ar
    49    82    85    1
    50    82    83    1
    51    13    12    1
    52     8     9    2
    53    94    95   ar
    54    94    93    1
    55     9    11    1
    56    32    33    1
    57    85    86    1
    58    86    88   ar
    59    33    36    1
    60    61    62    2
    61    61    60    1
    62    36    37    1
    63    37    38   ar
    64    42    43    1
    65    42    40   ar
    66    83    84    2
    67    90    93    1
    68    90    89    1
    69    90    91    1
    70   107   106   ar
    71    63    60    1
    72    63    64    1
    73   102   101    1
    74   102   105    1
    75   102   103    1
    76   106   108   ar
    77   106   105    1
    78    60    59    1
    79    26    25    2
    80    91    92    2
    81    38    40   ar
    82    65    64    1
    83    65    66    1
    84    68    67    1
    85   103   104    2
    86    66    67    2
    87    67    69    1
    88    25    24    1
    89    31    29   ar
    90    53    54    1
    91    23    24    1
    92    29    28    1
    93    29    30   ar
    94    24    27    1
    95    28    27    1
    96    54    55    1
    97    54    57    1
    98    55    56    2
    99    57    58    1
