@<TRIPOS>MOLECULE
tmp/1mpoC00.pdb
 194 189 0 0 0
SMALL
GASTEIGER

@<TRIPOS>ATOM
      1  N         -5.9430   25.6070   71.9500 N.3     5  GLY5       -0.1210
      2  CA        -6.5120   25.5630   73.2810 C.3     5  GLY5        0.1956
      3  C         -7.6890   24.6210   73.4840 C.2     5  GLY5        0.2611
      4  O         -7.7920   23.5620   72.8160 O.2     5  GLY5       -0.2717
      5  N         -8.5350   24.9560   74.4600 N.am    6  TYR6       -0.1976
      6  CA        -9.7230   24.1680   74.7940 C.3     6  TYR6        0.1639
      7  C        -10.5710   25.1220   75.6040 C.2     6  TYR6        0.2290
      8  O        -10.0300   26.0270   76.2010 O.2     6  TYR6       -0.2864
      9  CB        -9.3220   22.9780   75.6600 C.3     6  TYR6        0.0560
     10  CG       -10.4970   22.3140   76.2870 C.ar    6  TYR6       -0.0198
     11  CD1      -11.0740   22.8300   77.4290 C.ar    6  TYR6       -0.0009
     12  CD2      -11.1630   21.2650   75.6460 C.ar    6  TYR6       -0.0009
     13  CE1      -12.2910   22.3520   77.8900 C.ar    6  TYR6        0.0417
     14  CE2      -12.3960   20.7830   76.1300 C.ar    6  TYR6        0.0417
     15  CZ       -12.9500   21.3510   77.2370 C.ar    6  TYR6        0.1957
     16  OH       -14.2190   21.0340   77.6220 O.3     6  TYR6       -0.2866
     17  N        -14.7870   25.6220   77.5380 N.3     8  ARG8       -0.1245
     18  CA       -16.1980   25.1760   77.6720 C.3     8  ARG8        0.1563
     19  C        -16.7180   26.2330   78.5600 C.2     8  ARG8        0.2260
     20  O        -15.9650   26.7590   79.3600 O.2     8  ARG8       -0.2867
     21  CB       -16.3510   23.8260   78.3360 C.3     8  ARG8        0.0307
     22  CG       -15.9210   23.7540   79.7960 C.3     8  ARG8        0.0489
     23  CD       -16.3420   22.4140   80.3760 C.3     8  ARG8        0.2205
     24  NE       -15.6120   22.1380   81.5870 N.pl3   8  ARG8       -0.0865
     25  CZ       -14.4810   21.4550   81.6250 C.cat   8  ARG8        0.5346
     26  NH1      -13.9750   20.9750   80.5160 N.pl3   8  ARG8        0.1354
     27  NH2      -13.8290   21.2750   82.7560 N.pl3   8  ARG8        0.1354
     28  N        -19.7250   13.6800   81.6760 N.3    33  ARG33      -0.1245
     29  CA       -19.7760   15.0910   81.3760 C.3    33  ARG33       0.1563
     30  C        -20.8730   15.8030   80.6140 C.2    33  ARG33       0.2260
     31  O        -21.1400   16.9450   80.9150 O.2    33  ARG33      -0.2867
     32  CB       -18.4530   15.5310   80.7860 C.3    33  ARG33       0.0307
     33  CG       -18.1230   14.9570   79.4050 C.3    33  ARG33       0.0489
     34  CD       -16.6450   15.1300   79.0180 C.3    33  ARG33       0.2205
     35  NE       -16.2280   16.5210   79.0480 N.pl3  33  ARG33      -0.0865
     36  CZ       -14.9640   16.8730   78.8810 C.cat  33  ARG33       0.5346
     37  NH1      -14.0450   15.9240   78.6680 N.pl3  33  ARG33       0.1354
     38  NH2      -14.6150   18.1640   78.9200 N.pl3  33  ARG33       0.1354
     39  N        -13.9470   26.5510   81.8750 N.3    41  TYR41      -0.1241
     40  CA       -12.5460   26.1200   81.9630 C.3    41  TYR41       0.1605
     41  C        -11.9480   26.5000   80.6270 C.2    41  TYR41       0.2264
     42  O        -12.6300   26.3650   79.6470 O.2    41  TYR41      -0.2867
     43  CB       -12.4740   24.6140   82.0920 C.3    41  TYR41       0.0534
     44  CG       -11.0520   24.1600   82.1600 C.ar   41  TYR41      -0.0201
     45  CD1      -10.2480   24.5350   83.2220 C.ar   41  TYR41      -0.0009
     46  CD2      -10.4920   23.4040   81.1390 C.ar   41  TYR41      -0.0009
     47  CE1       -8.9010   24.1690   83.2590 C.ar   41  TYR41       0.0417
     48  CE2       -9.1440   23.0350   81.1690 C.ar   41  TYR41       0.0417
     49  CZ        -8.3570   23.4280   82.2220 C.ar   41  TYR41       0.1957
     50  OH        -7.0070   23.1620   82.2360 O.3    41  TYR41      -0.2866
     51  N         -8.0110   26.6810   78.2550 N.3    43  GLU43      -0.1245
     52  CA        -6.5520   26.6980   78.1130 C.3    43  GLU43       0.1567
     53  C         -6.2170   27.4970   76.8440 C.2    43  GLU43       0.2260
     54  O         -6.8660   27.3220   75.8220 O.2    43  GLU43      -0.2867
     55  CB        -6.0190   25.2990   78.0210 C.3    43  GLU43       0.0388
     56  CG        -6.4650   24.4600   79.1930 C.3    43  GLU43       0.1160
     57  CD        -5.8250   23.1010   79.1840 C.2    43  GLU43       0.3649
     58  OE1       -4.8750   22.8950   78.4070 O.co2  43  GLU43      -0.2457
     59  OE2       -6.2710   22.2230   79.9290 O.co2  43  GLU43      -0.2457
     60  N          0.6540   26.2610   82.9820 N.3    82  ARG82      -0.1245
     61  CA         0.8990   24.8250   82.7930 C.3    82  ARG82       0.1563
     62  C          1.9410   24.2920   81.8170 C.2    82  ARG82       0.2260
     63  O          2.3710   23.1340   81.9800 O.2    82  ARG82      -0.2867
     64  CB        -0.4220   24.1010   82.5610 C.3    82  ARG82       0.0307
     65  CG        -1.4750   24.4720   83.6150 C.3    82  ARG82       0.0489
     66  CD        -2.7860   23.7170   83.4780 C.3    82  ARG82       0.2205
     67  NE        -2.5420   22.3350   83.8180 N.pl3  82  ARG82      -0.0865
     68  CZ        -3.4510   21.3810   83.7580 C.cat  82  ARG82       0.5346
     69  NH1       -4.7160   21.6500   83.3770 N.pl3  82  ARG82       0.1354
     70  NH2       -3.0510   20.1360   83.9870 N.pl3  82  ARG82       0.1354
     71  N          2.6560   19.0800   78.8380 N.3   106  PHE106     -0.1241
     72  CA         1.6060   18.0290   78.9040 C.3   106  PHE106      0.1605
     73  C          2.1620   16.8450   78.0470 C.2   106  PHE106      0.2264
     74  O          2.0740   16.8650   76.8230 O.2   106  PHE106     -0.2867
     75  CB         0.2900   18.4940   78.2470 C.3   106  PHE106      0.0534
     76  CG        -0.5820   19.4180   79.0900 C.ar  106  PHE106     -0.0203
     77  CD1       -0.2790   19.7390   80.3860 C.ar  106  PHE106     -0.0042
     78  CD2       -1.7100   19.9890   78.5310 C.ar  106  PHE106     -0.0042
     79  CE1       -1.0840   20.6080   81.0950 C.ar  106  PHE106     -0.0003
     80  CE2       -2.5080   20.8520   79.2390 C.ar  106  PHE106     -0.0003
     81  CZ        -2.1910   21.1630   80.5260 C.ar  106  PHE106     -0.0000
     82  N          2.2530   13.2640   76.3030 N.3   108  GLN108     -0.1231
     83  CA         1.5120   12.1130   75.7960 C.3   108  GLN108      0.1698
     84  C          0.4420   11.6340   76.7250 C.2   108  GLN108      0.2592
     85  O          0.4400   10.4770   77.1060 O.2   108  GLN108     -0.2718
     86  CB         2.4580   10.9420   75.5340 C.3   108  GLN108      0.0381
     87  CG         3.6000   11.2820   74.6200 C.3   108  GLN108      0.0905
     88  CD         4.4800   10.0920   74.2750 C.2   108  GLN108      0.2608
     89  OE1        4.0850    8.9350   74.4310 O.2   108  GLN108     -0.2717
     90  NE2        5.6830   10.3830   73.7960 N.am  108  GLN108     -0.0878
     91  N         -0.5240   12.4650   77.0360 N.am  109  ARG109     -0.1966
     92  CA        -1.5020   11.9760   77.9750 C.3   109  ARG109      0.1729
     93  C         -2.6530   11.2120   77.3750 C.2   109  ARG109      0.2616
     94  O         -3.0990   11.5550   76.3130 O.2   109  ARG109     -0.2715
     95  CB        -1.9780   13.0830   78.9420 C.3   109  ARG109      0.0348
     96  CG        -2.2480   14.3960   78.3780 C.3   109  ARG109      0.0492
     97  CD        -1.4780   15.4180   79.1040 C.3   109  ARG109      0.2205
     98  NE        -2.3700   16.4130   79.7060 N.pl3 109  ARG109     -0.0865
     99  CZ        -3.3490   17.0980   79.0950 C.cat 109  ARG109      0.5346
    100  NH1       -3.6280   16.9410   77.8180 N.pl3 109  ARG109      0.1354
    101  NH2       -4.0510   17.9780   79.7800 N.pl3 109  ARG109      0.1354
    102  N         -3.1220   10.1670   78.0460 N.am  110  HIS110     -0.1959
    103  CA        -4.2510    9.3970   77.5670 C.3   110  HIS110      0.1787
    104  C         -5.4820    9.6850   78.4300 C.2   110  HIS110      0.2620
    105  O         -5.3720    9.7100   79.6640 O.2   110  HIS110     -0.2715
    106  CB        -3.9590    7.9250   77.6800 C.3   110  HIS110      0.0785
    107  CG        -2.7520    7.4900   76.9350 C.ar  110  HIS110      0.0821
    108  ND1       -2.6940    6.2790   76.2820 N.ar  110  HIS110     -0.2267
    109  CD2       -1.5300    8.0510   76.8080 C.ar  110  HIS110      0.1154
    110  CE1       -1.4760    6.1110   75.7970 C.ar  110  HIS110      0.1986
    111  NE2       -0.7530    7.1680   76.1020 N.ar  110  HIS110     -0.2212
    112  N         -6.6560    9.8270   77.8080 N.am  111  ASP111     -0.1971
    113  CA        -7.8670   10.1150   78.5430 C.3   111  ASP111      0.1709
    114  C         -9.0890    9.5360   77.8770 C.2   111  ASP111      0.2293
    115  O         -9.0060    9.0870   76.7730 O.2   111  ASP111     -0.2864
    116  CB        -8.0570   11.6000   78.6080 C.3   111  ASP111      0.1436
    117  CG        -8.3380   12.1990   77.2540 C.2   111  ASP111      0.3671
    118  OD1       -7.4550   12.1140   76.3800 O.co2 111  ASP111     -0.2456
    119  OD2       -9.4260   12.7720   77.0630 O.co2 111  ASP111     -0.2456
    120  N        -12.5090   10.8570   76.8180 N.3   113  HIS113     -0.1241
    121  CA       -13.2770   12.0730   76.6970 C.3   113  HIS113      0.1621
    122  C        -14.6010   12.1870   77.4270 C.2   113  HIS113      0.2264
    123  O        -14.8330   13.1780   78.1250 O.2   113  HIS113     -0.2867
    124  CB       -13.5140   12.4030   75.2380 C.3   113  HIS113      0.0745
    125  CG       -14.3170   13.6380   75.0440 C.ar  113  HIS113      0.0817
    126  ND1      -13.7650   14.8960   75.1250 N.ar  113  HIS113     -0.2268
    127  CD2      -15.6460   13.8190   74.9190 C.ar  113  HIS113      0.1154
    128  CE1      -14.7240   15.8030   75.0740 C.ar  113  HIS113      0.1986
    129  NE2      -15.8760   15.1760   74.9450 N.ar  113  HIS113     -0.2212
    130  N        -14.1990   12.4980   80.9540 N.3   116  ASP116     -0.1239
    131  CA       -13.1020   13.4210   81.1960 C.3   116  ASP116      0.1674
    132  C        -12.1510   12.8240   82.1990 C.2   116  ASP116      0.2266
    133  O        -11.7580   13.4770   83.1400 O.2   116  ASP116     -0.2867
    134  CB       -13.6560   14.7290   81.7350 C.3   116  ASP116      0.1410
    135  CG       -12.6550   15.8900   81.6460 C.2   116  ASP116      0.3668
    136  OD1      -11.6030   15.7700   80.9640 O.co2 116  ASP116     -0.2456
    137  OD2      -12.9390   16.9490   82.2670 O.co2 116  ASP116     -0.2456
    138  N         -8.4240   11.1640   82.8250 N.3   118  TYR118     -0.1241
    139  CA        -7.1210   10.9070   82.2640 C.3   118  TYR118      0.1605
    140  C         -6.5290    9.7310   82.9690 C.2   118  TYR118      0.2264
    141  O         -6.2100    9.8220   84.1360 O.2   118  TYR118     -0.2867
    142  CB        -6.2150   12.0740   82.5010 C.3   118  TYR118      0.0534
    143  CG        -6.4230   13.1580   81.5050 C.ar  118  TYR118     -0.0201
    144  CD1       -7.6050   13.9070   81.4980 C.ar  118  TYR118     -0.0009
    145  CD2       -5.4560   13.4270   80.5390 C.ar  118  TYR118     -0.0009
    146  CE1       -7.8370   14.8860   80.5460 C.ar  118  TYR118      0.0417
    147  CE2       -5.6570   14.3860   79.6100 C.ar  118  TYR118      0.0417
    148  CZ        -6.8570   15.1050   79.6020 C.ar  118  TYR118      0.1957
    149  OH        -7.1050   15.9470   78.5510 O.3   118  TYR118     -0.2866
    150  N         -1.1620   10.1220   82.5830 N.3   121  ASP121     -0.1239
    151  CA        -0.7350   11.5060   82.4580 C.3   121  ASP121      0.1674
    152  C          0.3150   11.8520   83.4980 C.2   121  ASP121      0.2266
    153  O         -0.0310   12.0530   84.6560 O.2   121  ASP121     -0.2867
    154  CB        -1.9330   12.4280   82.6810 C.3   121  ASP121      0.1410
    155  CG        -1.5810   13.8900   82.4780 C.2   121  ASP121      0.3668
    156  OD1       -0.4110   14.2090   82.1270 O.co2 121  ASP121     -0.2456
    157  OD2       -2.4960   14.7290   82.6340 O.co2 121  ASP121     -0.2456
    158  N         -2.3270    7.7450   87.9200 N.3   244  LYS244     -0.1245
    159  CA        -2.2500    8.1490   86.5220 C.3   244  LYS244      0.1561
    160  C         -0.8210    8.2770   86.1040 C.2   244  LYS244      0.2260
    161  O         -0.5620    8.8010   85.0550 O.2   244  LYS244     -0.2867
    162  CB        -2.8690    9.5230   86.3050 C.3   244  LYS244      0.0271
    163  CG        -4.2700    9.6760   86.7840 C.3   244  LYS244      0.0035
    164  CD        -4.7470   11.0550   86.4390 C.3   244  LYS244      0.0206
    165  CE        -6.0820   11.4100   87.0820 C.3   244  LYS244      0.1093
    166  NZ        -7.2910   10.5860   86.7920 N.3   244  LYS244     -0.1314
    167  N        -16.7080   13.8550   67.2480 N.3   358  TRP358     -0.1241
    168  CA       -15.4770   14.4700   67.6970 C.3   358  TRP358      0.1605
    169  C        -15.3100   15.8950   67.1660 C.2   358  TRP358      0.2264
    170  O        -14.2480   16.4920   67.3500 O.2   358  TRP358     -0.2867
    171  CB       -14.2810   13.6710   67.2110 C.3   358  TRP358      0.0550
    172  CG       -14.0660   12.3930   67.9070 C.ar  358  TRP358      0.0003
    173  CD1      -14.2800   11.1430   67.4050 C.ar  358  TRP358      0.0946
    174  CD2      -13.5460   12.2120   69.2380 C.ar  358  TRP358      0.0152
    175  NE1      -13.9250   10.1930   68.3370 N.ar  358  TRP358     -0.2442
    176  CE2      -13.4700   10.8230   69.4690 C.ar  358  TRP358      0.0810
    177  CE3      -13.1280   13.0910   70.2480 C.ar  358  TRP358      0.0012
    178  CZ2      -12.9940   10.2960   70.6610 C.ar  358  TRP358      0.0191
    179  CZ3      -12.6550   12.5690   71.4170 C.ar  358  TRP358      0.0001
    180  CH2      -12.5900   11.1850   71.6190 C.ar  358  TRP358      0.0015
    181  N        -12.2270   22.5810   71.1410 N.3   420  TRP420     -0.1241
    182  CA       -10.7750   22.4870   71.2440 C.3   420  TRP420      0.1605
    183  C        -10.3600   22.9880   69.8790 C.2   420  TRP420      0.2264
    184  O        -11.1570   22.9080   68.9760 O.2   420  TRP420     -0.2867
    185  CB       -10.2190   21.1330   71.6210 C.3   420  TRP420      0.0550
    186  CG       -10.7760   19.9450   71.0090 C.ar  420  TRP420      0.0003
    187  CD1      -10.3490   19.3630   69.8800 C.ar  420  TRP420      0.0946
    188  CD2      -11.6870   19.0110   71.6150 C.ar  420  TRP420      0.0152
    189  NE1      -10.8990   18.0960   69.7360 N.ar  420  TRP420     -0.2442
    190  CE2      -11.7290   17.8590   70.7910 C.ar  420  TRP420      0.0810
    191  CE3      -12.4550   19.0310   72.7710 C.ar  420  TRP420      0.0012
    192  CZ2      -12.4940   16.7500   71.0840 C.ar  420  TRP420      0.0191
    193  CZ3      -13.2170   17.9350   73.0650 C.ar  420  TRP420      0.0001
    194  CH2      -13.2330   16.8010   72.2190 C.ar  420  TRP420      0.0015
@<TRIPOS>BOND
     1   169   170    2
     2   169   168    1
     3   171   168    1
     4   171   172    1
     5   167   168    1
     6   173   172   ar
     7   173   175   ar
     8   172   174   ar
     9   175   176   ar
    10   184   183    2
    11   174   176   ar
    12   174   177   ar
    13   176   178   ar
    14   189   187   ar
    15   189   190   ar
    16   183   182    1
    17   187   186   ar
    18   177   179   ar
    19   178   180   ar
    20   190   192   ar
    21   190   188   ar
    22   186   188   ar
    23   186   185    1
    24   192   194   ar
    25   181   182    1
    26   182   185    1
    27   179   180   ar
    28   188   191   ar
    29     1     2    1
    30   194   193   ar
    31   191   193   ar
    32     4     3    2
    33     2     3    1
    34     3     5   am
    35    90    88   am
    36    88    89    2
    37    88    87    1
    38     5     6    1
    39    87    86    1
    40     6     7    1
    41     6     9    1
    42   127   129   ar
    43   127   125   ar
    44   129   128   ar
    45   125   126   ar
    46   125   124    1
    47   128   126   ar
    48   124   121    1
    49    86    83    1
    50     7     8    2
    51    12    14   ar
    52    12    10   ar
    53     9    10    1
    54    83    82    1
    55    83    84    1
    56   110   111   ar
    57   110   108   ar
    58    54    53    2
    59   111   109   ar
    60    14    15   ar
    61   108   107   ar
    62    10    11   ar
    63    94    93    2
    64   118   117   ar
    65   121   120    1
    66   121   122    1
    67    84    91   am
    68    84    85    2
    69   115   114    2
    70   109   107   ar
    71    74    73    2
    72    53    52    1
    73   107   106    1
    74    91    92    1
    75   119   117   ar
    76    15    16    1
    77    15    13   ar
    78   117   116    1
    79    93    92    1
    80    93   102   am
    81   122   123    2
    82    11    13   ar
    83    17    18    1
    84   103   106    1
    85   103   102    1
    86   103   104    1
    87    18    21    1
    88    18    19    1
    89   112   104   am
    90   112   113    1
    91   100    99    1
    92   114   113    1
    93    92    95    1
    94    55    52    1
    95    55    56    1
    96    73    72    1
    97    52    51    1
    98    75    72    1
    99    75    76    1
   100    21    22    1
   101    96    95    1
   102    96    97    1
   103    58    57   ar
   104   104   105    2
   105    78    76   ar
   106    78    80   ar
   107   113   116    1
   108   149   148    1
   109    19    20    2
   110    37    36    1
   111    71    72    1
   112    36    38    1
   113    36    35    2
   114    34    35    1
   115    34    33    1
   116    76    77   ar
   117    99    98    2
   118    99   101    1
   119    97    98    1
   120    57    56    1
   121    57    59   ar
   122    80    81   ar
   123    33    32    1
   124   148   147   ar
   125   148   146   ar
   126   147   145   ar
   127    42    41    2
   128    22    23    1
   129    23    24    1
   130    77    79   ar
   131    26    25    1
   132    81    79   ar
   133   145   143   ar
   134   146   144   ar
   135    30    31    2
   136    30    29    1
   137    41    40    1
   138    32    29    1
   139   130   131    1
   140   136   135   ar
   141    46    48   ar
   142    46    44   ar
   143    48    49   ar
   144   131   134    1
   145   131   132    1
   146    29    28    1
   147   144   143   ar
   148   143   142    1
   149    24    25    2
   150    25    27    1
   151   135   134    1
   152   135   137   ar
   153    62    63    2
   154    62    61    1
   155    39    40    1
   156    40    43    1
   157    43    44    1
   158   156   155   ar
   159    44    45   ar
   160   132   133    2
   161    49    50    1
   162    49    47   ar
   163   139   142    1
   164   139   138    1
   165   139   140    1
   166   151   150    1
   167   151   154    1
   168   151   152    1
   169   155   157   ar
   170   155   154    1
   171    64    61    1
   172    64    65    1
   173    61    60    1
   174   140   141    2
   175    45    47   ar
   176    69    68    1
   177    66    65    1
   178    66    67    1
   179   152   153    2
   180    68    67    2
   181    68    70    1
   182   161   160    2
   183   160   159    1
   184   162   159    1
   185   162   163    1
   186   164   163    1
   187   164   165    1
   188   159   158    1
   189   166   165    1
