@<TRIPOS>MOLECULE
tmp/1mpqA00.pdb
 154 146 0 0 0
SMALL
GASTEIGER

@<TRIPOS>ATOM
      1  N         10.0790   36.0640   76.5750 N.3     6  TYR6       -0.1241
      2  CA        11.2270   35.4400   77.1960 C.3     6  TYR6        0.1605
      3  C         10.6630   34.3260   78.0440 C.2     6  TYR6        0.2264
      4  O          9.5350   34.4340   78.5170 O.2     6  TYR6       -0.2867
      5  CB        11.9320   36.4160   78.0930 C.3     6  TYR6        0.0534
      6  CG        12.9480   35.7350   78.9260 C.ar    6  TYR6       -0.0201
      7  CD1       14.2440   35.5300   78.4440 C.ar    6  TYR6       -0.0009
      8  CD2       12.5990   35.1660   80.1450 C.ar    6  TYR6       -0.0009
      9  CE1       15.1570   34.7560   79.1500 C.ar    6  TYR6        0.0417
     10  CE2       13.4980   34.4020   80.8490 C.ar    6  TYR6        0.0417
     11  CZ        14.7750   34.1870   80.3460 C.ar    6  TYR6        0.1957
     12  OH        15.6200   33.3360   81.0000 O.3     6  TYR6       -0.2866
     13  N         11.9780   30.6100   80.5220 N.3     8  ARG8       -0.1245
     14  CA        12.9940   29.6520   80.9180 C.3     8  ARG8        0.1563
     15  C         12.1990   28.7100   81.7610 C.2     8  ARG8        0.2260
     16  O         11.2210   29.1230   82.3710 O.2     8  ARG8       -0.2867
     17  CB        14.1190   30.2740   81.7130 C.3     8  ARG8        0.0307
     18  CG        13.7220   30.9010   83.0110 C.3     8  ARG8        0.0489
     19  CD        14.9570   31.1840   83.8710 C.3     8  ARG8        0.2205
     20  NE        14.6390   32.1040   84.9490 N.pl3   8  ARG8       -0.0865
     21  CZ        14.5870   33.4190   84.8090 C.cat   8  ARG8        0.5346
     22  NH1       14.8410   33.9920   83.6510 N.pl3   8  ARG8        0.1354
     23  NH2       14.2360   34.1770   85.8140 N.pl3   8  ARG8        0.1354
     24  N         23.8730   41.1820   94.7770 N.3    29  GLN29      -0.1245
     25  CA        22.5700   41.4400   94.1930 C.3    29  GLN29       0.1566
     26  C         22.3290   40.5570   92.9480 C.2    29  GLN29       0.2260
     27  O         21.4020   40.8240   92.1600 O.2    29  GLN29      -0.2867
     28  CB        22.4610   42.8850   93.7610 C.3    29  GLN29       0.0367
     29  CG        22.8490   43.8490   94.7930 C.3    29  GLN29       0.0905
     30  CD        22.3750   45.2620   94.5100 C.2    29  GLN29       0.2608
     31  OE1       21.8800   45.9450   95.4090 O.2    29  GLN29      -0.2717
     32  NE2       22.5450   45.7300   93.2670 N.am   29  GLN29      -0.0878
     33  N         23.8390   32.8720   86.4770 N.3    33  ARG33      -0.1245
     34  CA        22.7250   32.0180   86.0930 C.3    33  ARG33       0.1563
     35  C         22.8810   30.6420   85.4920 C.2    33  ARG33       0.2260
     36  O         22.0650   29.7760   85.7710 O.2    33  ARG33      -0.2867
     37  CB        21.7550   32.7840   85.2240 C.3    33  ARG33       0.0307
     38  CG        22.3420   33.3240   83.9490 C.3    33  ARG33       0.0489
     39  CD        21.5580   34.5350   83.4290 C.3    33  ARG33       0.2205
     40  NE        20.1410   34.2550   83.1840 N.pl3  33  ARG33      -0.0865
     41  CZ        19.2910   35.1540   82.6880 C.cat  33  ARG33       0.5346
     42  NH1       19.7270   36.3710   82.3840 N.pl3  33  ARG33       0.1354
     43  NH2       17.9970   34.8650   82.5090 N.pl3  33  ARG33       0.1354
     44  N          9.9920   31.1440   84.4360 N.3    41  TYR41      -0.1241
     45  CA         9.6940   32.5630   84.3770 C.3    41  TYR41       0.1605
     46  C          9.3400   32.8170   82.9250 C.2    41  TYR41       0.2264
     47  O         10.0100   32.2850   82.0550 O.2    41  TYR41      -0.2867
     48  CB        10.9310   33.3850   84.7260 C.3    41  TYR41       0.0534
     49  CG        10.6260   34.8420   84.6250 C.ar   41  TYR41      -0.0201
     50  CD1        9.6480   35.4040   85.4170 C.ar   41  TYR41      -0.0009
     51  CD2       11.2290   35.6460   83.6840 C.ar   41  TYR41      -0.0009
     52  CE1        9.2640   36.7260   85.2690 C.ar   41  TYR41       0.0417
     53  CE2       10.8440   36.9910   83.5390 C.ar   41  TYR41       0.0417
     54  CZ         9.8600   37.5010   84.3350 C.ar   41  TYR41       0.1957
     55  OH         9.4260   38.7750   84.1950 O.3    41  TYR41      -0.2866
     56  N          7.6090   35.9180   79.9950 N.3    43  GLU43      -0.1245
     57  CA         6.9220   37.1700   79.6660 C.3    43  GLU43       0.1567
     58  C          6.2780   36.9210   78.3220 C.2    43  GLU43       0.2260
     59  O          6.9230   36.3860   77.4320 O.2    43  GLU43      -0.2867
     60  CB         7.8920   38.3270   79.5920 C.3    43  GLU43       0.0388
     61  CG         8.7350   38.3680   80.8320 C.3    43  GLU43       0.1160
     62  CD         9.6200   39.5690   80.9190 C.2    43  GLU43       0.3649
     63  OE1        9.8790   40.2230   79.8970 O.co2  43  GLU43      -0.2457
     64  OE2       10.0980   39.8410   82.0220 O.co2  43  GLU43      -0.2457
     65  N          2.9680   43.8790   83.2500 N.3    82  ARG82      -0.1245
     66  CA         4.0910   44.7870   83.1700 C.3    82  ARG82       0.1563
     67  C          4.2130   45.8400   82.0880 C.2    82  ARG82       0.2260
     68  O          4.9290   46.8480   82.3230 O.2    82  ARG82      -0.2867
     69  CB         5.3720   43.9980   83.2110 C.3    82  ARG82       0.0307
     70  CG         5.3600   43.0100   84.3310 C.3    82  ARG82       0.0489
     71  CD         6.6530   42.2900   84.4310 C.3    82  ARG82       0.2205
     72  NE         7.6820   43.2530   84.7730 N.pl3  82  ARG82      -0.0865
     73  CZ         8.9310   42.9340   85.0680 C.cat  82  ARG82       0.5346
     74  NH1        9.3450   41.6700   85.0630 N.pl3  82  ARG82       0.1354
     75  NH2        9.7650   43.8960   85.3760 N.pl3  82  ARG82       0.1354
     76  N          8.7990   48.7540   79.4470 N.3   106  PHE106     -0.1241
     77  CA        10.1680   48.4320   79.9060 C.3   106  PHE106      0.1605
     78  C         10.9990   49.4350   79.0800 C.2   106  PHE106      0.2264
     79  O         11.1730   49.2140   77.8900 O.2   106  PHE106     -0.2867
     80  CB        10.6470   47.0430   79.4570 C.3   106  PHE106      0.0534
     81  CG        10.1690   45.8820   80.3060 C.ar  106  PHE106     -0.0203
     82  CD1        9.3900   46.0670   81.4380 C.ar  106  PHE106     -0.0042
     83  CD2       10.4340   44.5910   79.9080 C.ar  106  PHE106     -0.0042
     84  CE1        8.8840   44.9720   82.1320 C.ar  106  PHE106     -0.0003
     85  CE2        9.9290   43.5360   80.5910 C.ar  106  PHE106     -0.0003
     86  CZ         9.1500   43.7220   81.7030 C.ar  106  PHE106     -0.0000
     87  N         16.4930   49.1710   78.9800 N.3   109  ARG109     -0.1245
     88  CA        17.2010   48.6080   80.1060 C.3   109  ARG109      0.1563
     89  C         18.5270   47.9960   79.7920 C.2   109  ARG109      0.2260
     90  O         18.6140   47.1250   78.9410 O.2   109  ARG109     -0.2867
     91  CB        16.3240   47.5970   80.8690 C.3   109  ARG109      0.0307
     92  CG        15.1240   47.1800   80.1410 C.3   109  ARG109      0.0489
     93  CD        13.9190   47.0820   81.0110 C.3   109  ARG109      0.2205
     94  NE        13.6680   45.7260   81.5290 N.pl3 109  ARG109     -0.0865
     95  CZ        13.5740   44.6230   80.7940 C.cat 109  ARG109      0.5346
     96  NH1       13.7220   44.6730   79.4920 N.pl3 109  ARG109      0.1354
     97  NH2       13.2790   43.4780   81.3540 N.pl3 109  ARG109      0.1354
     98  N         22.3020   38.1310   85.0840 N.3   116  ASP116     -0.1225
     99  CA        20.9230   38.6100   85.0610 C.3   116  ASP116      0.1805
    100  C         20.8040   39.8440   85.8940 C.2   116  ASP116      0.2598
    101  O         19.8100   40.0090   86.5590 O.2   116  ASP116     -0.2718
    102  CB        19.9890   37.5650   85.6450 C.3   116  ASP116      0.1424
    103  CG        18.5350   37.7510   85.2310 C.2   116  ASP116      0.3668
    104  OD1       18.2570   38.6570   84.4120 O.co2 116  ASP116     -0.2456
    105  OD2       17.6700   36.9400   85.6840 O.co2 116  ASP116     -0.2456
    106  N         21.7200   40.7810   85.7440 N.am  117  PHE117     -0.1962
    107  CA        21.7250   41.9560   86.5770 C.3   117  PHE117      0.1771
    108  C         21.3370   43.1840   85.7600 C.2   117  PHE117      0.2619
    109  O         22.0100   43.4960   84.8220 O.2   117  PHE117     -0.2715
    110  CB        23.1720   42.0600   87.1450 C.3   117  PHE117      0.0574
    111  CG        23.4140   43.2190   88.0670 C.ar  117  PHE117     -0.0200
    112  CD1       22.7000   43.3650   89.2380 C.ar  117  PHE117     -0.0042
    113  CD2       24.3480   44.1870   87.7470 C.ar  117  PHE117     -0.0042
    114  CE1       22.8920   44.4470   90.0690 C.ar  117  PHE117     -0.0003
    115  CE2       24.5600   45.2940   88.5800 C.ar  117  PHE117     -0.0003
    116  CZ        23.8180   45.4180   89.7460 C.ar  117  PHE117     -0.0000
    117  N         20.2240   43.8440   86.0340 N.am  118  TYR118     -0.1974
    118  CA        19.9440   45.0560   85.2860 C.3   118  TYR118      0.1639
    119  C         20.6540   46.1770   85.9810 C.2   118  TYR118      0.2290
    120  O         20.4070   46.4180   87.1480 O.2   118  TYR118     -0.2864
    121  CB        18.4800   45.3670   85.3090 C.3   118  TYR118      0.0560
    122  CG        17.8090   44.5560   84.3140 C.ar  118  TYR118     -0.0198
    123  CD1       17.6660   43.1910   84.5120 C.ar  118  TYR118     -0.0009
    124  CD2       17.4210   45.1080   83.1210 C.ar  118  TYR118     -0.0009
    125  CE1       17.1730   42.3880   83.5630 C.ar  118  TYR118      0.0417
    126  CE2       16.9250   44.3420   82.1650 C.ar  118  TYR118      0.0417
    127  CZ        16.8130   42.9650   82.3860 C.ar  118  TYR118      0.1957
    128  OH        16.4100   42.1540   81.3750 O.3   118  TYR118     -0.2866
    129  N         17.7590   50.6370   84.7970 N.3   121  ASP121     -0.1239
    130  CA        16.4270   50.2280   84.4310 C.3   121  ASP121      0.1674
    131  C         15.4100   51.0480   85.2140 C.2   121  ASP121      0.2266
    132  O         15.1680   50.7620   86.3810 O.2   121  ASP121     -0.2867
    133  CB        16.2660   48.7400   84.8060 C.3   121  ASP121      0.1410
    134  CG        14.8760   48.1860   84.4680 C.2   121  ASP121      0.3668
    135  OD1       14.0830   48.9390   83.8700 O.co2 121  ASP121     -0.2456
    136  OD2       14.5580   47.0090   84.7910 O.co2 121  ASP121     -0.2456
    137  N         17.7230   50.8710   95.5350 N.3   242  GLN242     -0.1245
    138  CA        17.3760   50.1010   94.3190 C.3   242  GLN242      0.1566
    139  C         18.6020   50.0400   93.3700 C.2   242  GLN242      0.2260
    140  O         18.9020   48.9960   92.7960 O.2   242  GLN242     -0.2867
    141  CB        16.1830   50.7300   93.6070 C.3   242  GLN242      0.0367
    142  CG        15.4930   49.7940   92.6100 C.3   242  GLN242      0.0905
    143  CD        15.6970   50.1520   91.1470 C.2   242  GLN242      0.2608
    144  OE1       16.5730   50.9420   90.7870 O.2   242  GLN242     -0.2717
    145  NE2       14.8700   49.5750   90.2990 N.am  242  GLN242     -0.0878
    146  N         19.4390   51.2870   90.2150 N.3   244  LYS244     -0.1245
    147  CA        19.2650   51.0550   88.7980 C.3   244  LYS244      0.1561
    148  C         18.5210   52.2160   88.2300 C.2   244  LYS244      0.2260
    149  O         18.1130   52.1440   87.1060 O.2   244  LYS244     -0.2867
    150  CB        18.4130   49.8070   88.5430 C.3   244  LYS244      0.0271
    151  CG        18.7770   48.5880   89.4030 C.3   244  LYS244      0.0035
    152  CD        18.1140   47.3390   88.9050 C.3   244  LYS244      0.0206
    153  CE        18.4220   46.0430   89.6840 C.3   244  LYS244      0.1093
    154  NZ        19.8060   45.9530   90.2190 N.3   244  LYS244     -0.1314
@<TRIPOS>BOND
     1     1     2    1
     2     2     3    1
     3     2     5    1
     4    59    58    2
     5    79    78    2
     6     3     4    2
     7     5     6    1
     8    58    57    1
     9     7     6   ar
    10     7     9   ar
    11     6     8   ar
    12    90    89    2
    13    87    88    1
    14    78    77    1
    15     9    11   ar
    16    76    77    1
    17    80    77    1
    18    80    81    1
    19    96    95    1
    20    60    57    1
    21    60    61    1
    22    57    56    1
    23    89    88    1
    24    63    62   ar
    25    83    81   ar
    26    83    85   ar
    27    88    91    1
    28    92    91    1
    29    92    93    1
    30     8    10   ar
    31    81    82   ar
    32    11    10   ar
    33    11    12    1
    34    13    14    1
    35    85    86   ar
    36    95    97    1
    37    95    94    2
    38    61    62    1
    39    14    17    1
    40    14    15    1
    41    62    64   ar
    42    93    94    1
    43   128   127    1
    44    82    84   ar
    45    86    84   ar
    46    17    18    1
    47    15    16    2
    48    47    46    2
    49    67    68    2
    50    67    66    1
    51   126   127   ar
    52   126   124   ar
    53    42    41    1
    54   127   125   ar
    55    43    41    1
    56    41    40    2
    57    46    45    1
    58    18    19    1
    59   124   122   ar
    60    66    69    1
    61    66    65    1
    62    40    39    1
    63    69    70    1
    64    39    38    1
    65    53    51   ar
    66    53    54   ar
    67   125   123   ar
    68    22    21    1
    69    51    49   ar
    70   135   134   ar
    71    19    20    1
    72    38    37    1
    73    55    54    1
    74   122   123   ar
    75   122   121    1
    76    70    71    1
    77    54    52   ar
    78    45    44    1
    79    45    48    1
    80   104   103   ar
    81    71    72    1
    82   130   129    1
    83   130   133    1
    84   130   131    1
    85   134   136   ar
    86   134   133    1
    87    49    48    1
    88    49    50   ar
    89    72    73    2
    90    21    20    2
    91    21    23    1
    92   109   108    2
    93    99    98    1
    94    99   102    1
    95    99   100    1
    96    74    73    1
    97    73    75    1
    98   131   132    2
    99    37    34    1
   100   103   102    1
   101   103   105   ar
   102    52    50   ar
   103   118   121    1
   104   118   119    1
   105   118   117    1
   106    35    36    2
   107    35    34    1
   108   106   100   am
   109   106   107    1
   110   108   117   am
   111   108   107    1
   112   100   101    2
   113   119   120    2
   114    34    33    1
   115   107   110    1
   116   149   148    2
   117   110   111    1
   118   113   111   ar
   119   113   115   ar
   120   111   112   ar
   121   148   147    1
   122   150   147    1
   123   150   151    1
   124   115   116   ar
   125   147   146    1
   126   152   151    1
   127   152   153    1
   128   112   114   ar
   129   153   154    1
   130   116   114   ar
   131   145   143   am
   132   144   143    2
   133   143   142    1
   134    27    26    2
   135   142   141    1
   136   140   139    2
   137    26    25    1
   138    32    30   am
   139   139   138    1
   140   141   138    1
   141    28    25    1
   142    28    29    1
   143    25    24    1
   144   138   137    1
   145    30    29    1
   146    30    31    2
