@<TRIPOS>MOLECULE
tmp/1mpsA07.pdb
 154 146 0 0 0
SMALL
GASTEIGER

@<TRIPOS>ATOM
      1  N         16.1040   99.9150   17.5870 N.3   175  ILE175     -0.1245
      2  CA        15.0790  100.7370   18.2060 C.3   175  ILE175      0.1561
      3  C         14.9040  100.3820   19.6930 C.2   175  ILE175      0.2260
      4  O         14.9230  101.2650   20.5570 O.2   175  ILE175     -0.2867
      5  CB        13.7660  100.6240   17.4030 C.3   175  ILE175      0.0252
      6  CG1       13.9350  101.3710   16.0680 C.3   175  ILE175      0.0019
      7  CG2       12.5880  101.1580   18.1950 C.3   175  ILE175      0.0019
      8  CD1       12.8180  101.1480   15.0580 C.3   175  ILE175      0.0001
      9  N         15.4050  102.9230   23.2750 N.3   179  PHE179     -0.1241
     10  CA        14.4340  103.1130   24.3450 C.3   179  PHE179      0.1605
     11  C         15.0050  102.6610   25.7040 C.2   179  PHE179      0.2264
     12  O         14.7170  103.2740   26.7340 O.2   179  PHE179     -0.2867
     13  CB        13.1440  102.3520   24.0430 C.3   179  PHE179      0.0534
     14  CG        12.2060  103.0820   23.1290 C.ar  179  PHE179     -0.0203
     15  CD1       11.4790  104.1740   23.5880 C.ar  179  PHE179     -0.0042
     16  CD2       12.0270  102.6640   21.8190 C.ar  179  PHE179     -0.0042
     17  CE1       10.5760  104.8430   22.7500 C.ar  179  PHE179     -0.0003
     18  CE2       11.1290  103.3270   20.9770 C.ar  179  PHE179     -0.0003
     19  CZ        10.4020  104.4180   21.4440 C.ar  179  PHE179     -0.0000
     20  N         17.4310  105.5040   26.6370 N.3   182  THR182     -0.1218
     21  CA        16.7070  106.7390   26.9420 C.3   182  THR182      0.1862
     22  C         15.9560  106.6080   28.2690 C.2   182  THR182      0.2287
     23  O         15.9410  107.5400   29.0840 O.2   182  THR182     -0.2866
     24  CB        15.7270  107.1160   25.7950 C.3   182  THR182      0.1770
     25  OG1       16.4770  107.2860   24.5890 O.3   182  THR182     -0.2211
     26  CG2       14.9800  108.4190   26.0990 C.3   182  THR182      0.0375
     27  N         18.1860  107.2050   30.9250 N.3   185  LEU185     -0.1231
     28  CA        18.5200  108.6350   30.9850 C.3   185  LEU185      0.1693
     29  C         17.4150  109.3590   31.7610 C.2   185  LEU185      0.2591
     30  O         17.6850  110.1530   32.6710 O.2   185  LEU185     -0.2718
     31  CB        18.6580  109.2360   29.5750 C.3   185  LEU185      0.0284
     32  CG        18.5840  110.7650   29.3840 C.3   185  LEU185      0.0019
     33  CD1       19.5720  111.4830   30.2650 C.3   185  LEU185      0.0001
     34  CD2       18.8580  111.1160   27.9370 C.3   185  LEU185      0.0001
     35  N         16.1700  109.0190   31.4430 N.am  186  ALA186     -0.1980
     36  CA        15.0120  109.6280   32.0890 C.3   186  ALA186      0.1597
     37  C         14.8630  109.2260   33.5680 C.2   186  ALA186      0.2287
     38  O         14.4980  110.0560   34.3990 O.2   186  ALA186     -0.2864
     39  CB        13.7270  109.3140   31.2980 C.3   186  ALA186      0.0319
     40  N         17.4580  111.2520   35.4220 N.3   189  LEU189     -0.1245
     41  CA        17.0210  112.6460   35.4960 C.3   189  LEU189      0.1561
     42  C         15.8520  112.8920   36.4590 C.2   189  LEU189      0.2260
     43  O         15.8560  113.8800   37.1970 O.2   189  LEU189     -0.2867
     44  CB        16.6770  113.1750   34.1040 C.3   189  LEU189      0.0270
     45  CG        17.8730  113.3830   33.1760 C.3   189  LEU189      0.0019
     46  CD1       17.4010  113.9320   31.8380 C.3   189  LEU189      0.0001
     47  CD2       18.8740  114.3260   33.8210 C.3   189  LEU189      0.0001
     48  N         14.4490  122.7430   34.5290 N.3   216  PHE216     -0.1241
     49  CA        14.5160  122.0980   33.2280 C.3   216  PHE216      0.1605
     50  C         14.3320  123.0060   32.0260 C.2   216  PHE216      0.2264
     51  O         14.8630  122.7270   30.9420 O.2   216  PHE216     -0.2867
     52  CB        13.6630  120.8350   33.1490 C.3   216  PHE216      0.0534
     53  CG        14.4900  119.6080   32.9500 C.ar  216  PHE216     -0.0203
     54  CD1       14.8770  119.2180   31.6710 C.ar  216  PHE216     -0.0042
     55  CD2       14.9970  118.9150   34.0420 C.ar  216  PHE216     -0.0042
     56  CE1       15.7650  118.1650   31.4850 C.ar  216  PHE216     -0.0003
     57  CE2       15.8880  117.8580   33.8660 C.ar  216  PHE216     -0.0003
     58  CZ        16.2740  117.4850   32.5890 C.ar  216  PHE216     -0.0000
     59  N         17.3320  123.0070   29.2810 N.3   220  VAL220     -0.1245
     60  CA        17.1160  122.6190   27.8790 C.3   220  VAL220      0.1561
     61  C         15.9660  123.3280   27.1730 C.2   220  VAL220      0.2260
     62  O         15.5920  122.9500   26.0620 O.2   220  VAL220     -0.2867
     63  CB        16.9160  121.0770   27.7070 C.3   220  VAL220      0.0252
     64  CG1       18.1400  120.3130   28.2000 C.3   220  VAL220      0.0019
     65  CG2       15.6540  120.6100   28.4300 C.3   220  VAL220      0.0019
     66  N         12.7860  123.3460   28.0110 N.3   222  TYR222     -0.1227
     67  CA        11.5030  122.6670   28.0640 C.3   222  TYR222      0.1736
     68  C         11.3950  121.7760   29.2940 C.2   222  TYR222      0.2596
     69  O         12.3990  121.3050   29.8300 O.2   222  TYR222     -0.2718
     70  CB        11.2560  121.8550   26.7820 C.3   222  TYR222      0.0548
     71  CG         9.9580  121.0650   26.8010 C.ar  222  TYR222     -0.0200
     72  CD1        8.7250  121.7100   26.6680 C.ar  222  TYR222     -0.0009
     73  CD2        9.9580  119.6800   27.0120 C.ar  222  TYR222     -0.0009
     74  CE1        7.5170  121.0030   26.7550 C.ar  222  TYR222      0.0417
     75  CE2        8.7460  118.9570   27.0980 C.ar  222  TYR222      0.0417
     76  CZ         7.5380  119.6340   26.9710 C.ar  222  TYR222      0.1957
     77  OH         6.3550  118.9410   27.0720 O.3   222  TYR222     -0.2866
     78  N         10.1700  121.6240   29.7810 N.am  223  SER223     -0.1938
     79  CA         9.8800  120.7810   30.9280 C.3   223  SER223      0.2055
     80  C          8.5840  120.0660   30.5780 C.2   223  SER223      0.2642
     81  O          7.6040  120.6940   30.1580 O.2   223  SER223     -0.2714
     82  CB         9.7130  121.6110   32.2030 C.3   223  SER223      0.2130
     83  OG         9.3820  120.7790   33.3060 O.3   223  SER223     -0.2179
     84  N          8.6050  118.7470   30.6900 N.am  224  ILE224     -0.1977
     85  CA         7.4460  117.9370   30.3620 C.3   224  ILE224      0.1596
     86  C          6.4190  117.9320   31.5120 C.2   224  ILE224      0.2287
     87  O          5.2510  117.5910   31.3070 O.2   224  ILE224     -0.2864
     88  CB         7.8930  116.4890   29.9440 C.3   224  ILE224      0.0276
     89  CG1        6.7680  115.7630   29.2090 C.3   224  ILE224      0.0022
     90  CG2        8.3380  115.6780   31.1670 C.3   224  ILE224      0.0022
     91  CD1        7.2420  114.5250   28.5040 C.3   224  ILE224      0.0001
     92  N          6.2480  113.2980   32.9720 N.3   229  ILE229     -0.1245
     93  CA         7.4130  112.4490   33.2240 C.3   229  ILE229      0.1561
     94  C          7.0730  111.0260   33.6820 C.2   229  ILE229      0.2260
     95  O          7.8310  110.0960   33.4210 O.2   229  ILE229     -0.2867
     96  CB         8.3890  113.0870   34.2440 C.3   229  ILE229      0.0252
     97  CG1        9.7210  112.3460   34.2070 C.3   229  ILE229      0.0019
     98  CG2        7.8140  113.0390   35.6740 C.3   229  ILE229      0.0019
     99  CD1       10.4220  112.4230   32.8570 C.3   229  ILE229      0.0001
    100  N          5.7840  109.4620   30.5520 N.3   232  LEU232     -0.1245
    101  CA         6.9320  109.2220   29.6770 C.3   232  LEU232      0.1561
    102  C          7.7050  107.9730   30.1160 C.2   232  LEU232      0.2260
    103  O          8.0150  107.1000   29.2940 O.2   232  LEU232     -0.2867
    104  CB         7.8810  110.4380   29.6790 C.3   232  LEU232      0.0270
    105  CG         9.1660  110.3680   28.8280 C.3   232  LEU232      0.0019
    106  CD1        8.8130  110.2530   27.3360 C.3   232  LEU232      0.0001
    107  CD2       10.0530  111.5870   29.0540 C.3   232  LEU232      0.0001
    108  N          5.9460  104.8410   29.3440 N.3   235  LEU235     -0.1231
    109  CA         6.0080  104.6310   27.8990 C.3   235  LEU235      0.1693
    110  C          7.3570  104.1770   27.3360 C.2   235  LEU235      0.2591
    111  O          7.4050  103.2990   26.4670 O.2   235  LEU235     -0.2718
    112  CB         5.5350  105.8690   27.1550 C.3   235  LEU235      0.0284
    113  CG         4.4100  105.4910   26.1930 C.3   235  LEU235      0.0019
    114  CD1        3.0950  105.3230   26.9770 C.3   235  LEU235      0.0001
    115  CD2        4.2860  106.5460   25.1040 C.3   235  LEU235      0.0001
    116  N          8.4450  104.7900   27.7920 N.am  236  LEU236     -0.1980
    117  CA         9.7690  104.4010   27.3250 C.3   236  LEU236      0.1596
    118  C         10.0190  102.9250   27.6720 C.2   236  LEU236      0.2287
    119  O         10.4670  102.1560   26.8210 O.2   236  LEU236     -0.2864
    120  CB        10.8510  105.2900   27.9490 C.3   236  LEU236      0.0297
    121  CG        10.8840  106.7720   27.5520 C.3   236  LEU236      0.0022
    122  CD1       11.9900  107.4870   28.3110 C.3   236  LEU236      0.0001
    123  CD2       11.1120  106.9160   26.0560 C.3   236  LEU236      0.0001
    124  N          7.8580  100.4390   25.6320 N.3   239  SER239     -0.1217
    125  CA         8.2930  100.4750   24.2450 C.3   239  SER239      0.1889
    126  C          9.5700   99.6530   24.0800 C.2   239  SER239      0.2288
    127  O          9.6830   98.8630   23.1380 O.2   239  SER239     -0.2866
    128  CB         8.5060  101.9220   23.7730 C.3   239  SER239      0.2089
    129  OG         7.2700  102.6190   23.6890 O.3   239  SER239     -0.2183
    130  N          9.4880   96.5360   21.4460 N.3   243  PHE243     -0.1241
    131  CA        10.4080   96.3900   20.3320 C.3   243  PHE243      0.1605
    132  C         11.3920   95.2390   20.4850 C.2   243  PHE243      0.2264
    133  O         11.8670   94.6890   19.4790 O.2   243  PHE243     -0.2867
    134  CB        11.0970   97.7120   20.0210 C.3   243  PHE243      0.0534
    135  CG        10.2310   98.6540   19.2410 C.ar  243  PHE243     -0.0203
    136  CD1        9.9930   98.4350   17.8880 C.ar  243  PHE243     -0.0042
    137  CD2        9.6180   99.7390   19.8580 C.ar  243  PHE243     -0.0042
    138  CE1        9.1540   99.2840   17.1600 C.ar  243  PHE243     -0.0003
    139  CE2        8.7790  100.5910   19.1380 C.ar  243  PHE243     -0.0003
    140  CZ         8.5460  100.3620   17.7830 C.ar  243  PHE243     -0.0000
    141  N         19.0250   96.9640    0.8680 N.3   265  TRP265     -0.1241
    142  CA        17.8480   97.5370    0.2080 C.3   265  TRP265      0.1605
    143  C         17.9870   99.0440    0.0020 C.2   265  TRP265      0.2264
    144  O         17.7740   99.5470   -1.1010 O.2   265  TRP265     -0.2867
    145  CB        16.5530   97.2070    0.9690 C.3   265  TRP265      0.0550
    146  CG        16.2820   98.0500    2.1850 C.ar  265  TRP265      0.0003
    147  CD1       16.6240   97.7610    3.4760 C.ar  265  TRP265      0.0946
    148  CD2       15.5990   99.3140    2.2260 C.ar  265  TRP265      0.0152
    149  NE1       16.2000   98.7620    4.3160 N.ar  265  TRP265     -0.2442
    150  CE2       15.5690   99.7290    3.5770 C.ar  265  TRP265      0.0810
    151  CE3       15.0130  100.1350    1.2550 C.ar  265  TRP265      0.0012
    152  CZ2       14.9740  100.9310    3.9810 C.ar  265  TRP265      0.0191
    153  CZ3       14.4220  101.3310    1.6590 C.ar  265  TRP265      0.0001
    154  CH2       14.4080  101.7150    3.0100 C.ar  265  TRP265      0.0015
@<TRIPOS>BOND
     1   144   143    2
     2   143   142    1
     3   142   141    1
     4   142   145    1
     5   145   146    1
     6   151   153   ar
     7   151   148   ar
     8   153   154   ar
     9   146   148   ar
    10   146   147   ar
    11   148   150   ar
    12   154   152   ar
    13   147   149   ar
    14   150   152   ar
    15   150   149   ar
    16     8     6    1
    17     6     5    1
    18   138   140   ar
    19   138   136   ar
    20     5     7    1
    21     5     2    1
    22     1     2    1
    23   140   139   ar
    24   136   135   ar
    25     2     3    1
    26   139   137   ar
    27   135   137   ar
    28   135   134    1
    29   133   132    2
    30     3     4    2
    31   134   131    1
    32   131   132    1
    33   131   130    1
    34    18    19   ar
    35    18    16   ar
    36    19    17   ar
    37    16    14   ar
    38    17    15   ar
    39    14    15   ar
    40    14    13    1
    41   127   126    2
    42     9    10    1
    43   129   128    1
    44   128   125    1
    45    13    10    1
    46   126   125    1
    47   125   124    1
    48    10    11    1
    49    25    24    1
    50   115   113    1
    51    11    12    2
    52    24    26    1
    53    24    21    1
    54   123   121    1
    55    62    61    2
    56   113   114    1
    57   113   112    1
    58   111   110    2
    59    20    21    1
    60    72    74   ar
    61    72    71   ar
    62    74    76   ar
    63    70    71    1
    64    70    67    1
    65    71    73   ar
    66   119   118    2
    67    21    22    1
    68    76    77    1
    69    76    75   ar
    70    73    75   ar
    71   112   109    1
    72    61    60    1
    73   117   118    1
    74   117   116    1
    75   117   120    1
    76   110   116   am
    77   110   109    1
    78   106   105    1
    79   121   120    1
    80   121   122    1
    81    63    60    1
    82    63    64    1
    83    63    65    1
    84    60    59    1
    85   109   108    1
    86    34    32    1
    87    66    67    1
    88    67    68    1
    89    22    23    2
    90    91    89    1
    91   105   107    1
    92   105   104    1
    93    89    88    1
    94    68    78   am
    95    68    69    2
    96   103   102    2
    97    32    31    1
    98    32    33    1
    99    31    28    1
   100   101   104    1
   101   101   102    1
   102   101   100    1
   103    78    79    1
   104    88    85    1
   105    88    90    1
   106    81    80    2
   107    85    84    1
   108    85    86    1
   109    80    84   am
   110    80    79    1
   111    27    28    1
   112    79    82    1
   113    51    50    2
   114    28    29    1
   115    39    36    1
   116    87    86    2
   117    35    29   am
   118    35    36    1
   119    56    54   ar
   120    56    58   ar
   121    54    53   ar
   122    29    30    2
   123    46    45    1
   124    50    49    1
   125    36    37    1
   126    82    83    1
   127    58    57   ar
   128    99    97    1
   129    53    52    1
   130    53    55   ar
   131    92    93    1
   132    52    49    1
   133    45    47    1
   134    45    44    1
   135    93    94    1
   136    93    96    1
   137    49    48    1
   138    95    94    2
   139    37    38    2
   140    57    55   ar
   141    44    41    1
   142    97    96    1
   143    96    98    1
   144    40    41    1
   145    41    42    1
   146    42    43    2
