@<TRIPOS>MOLECULE
tmp/1mpwB01.pdb
 119 110 0 0 0
SMALL
GASTEIGER

@<TRIPOS>ATOM
      1  N         54.8710  -15.2690  -86.9330 N.3    78  TRP78      -0.1241
      2  CA        54.0050  -16.2560  -87.5930 C.3    78  TRP78       0.1605
      3  C         52.9770  -16.7370  -86.5840 C.2    78  TRP78       0.2264
      4  O         53.2920  -16.9150  -85.4170 O.2    78  TRP78      -0.2867
      5  CB        54.8000  -17.4370  -88.1430 C.3    78  TRP78       0.0550
      6  CG        54.8020  -17.5350  -89.6720 C.ar   78  TRP78       0.0003
      7  CD1       54.6010  -18.6730  -90.4200 C.ar   78  TRP78       0.0946
      8  CD2       55.1580  -16.5040  -90.6180 C.ar   78  TRP78       0.0152
      9  NE1       54.8230  -18.4170  -91.7470 N.ar   78  TRP78      -0.2442
     10  CE2       55.1660  -17.0990  -91.9030 C.ar   78  TRP78       0.0810
     11  CE3       55.4730  -15.1530  -90.5050 C.ar   78  TRP78       0.0012
     12  CZ2       55.4870  -16.3760  -93.0760 C.ar   78  TRP78       0.0191
     13  CZ3       55.7920  -14.4370  -91.6730 C.ar   78  TRP78       0.0001
     14  CH2       55.7980  -15.0580  -92.9390 C.ar   78  TRP78       0.0015
     15  N         60.2930  -19.2800  -86.5880 N.3    87  PHE87      -0.1241
     16  CA        60.6270  -18.2240  -87.5680 C.3    87  PHE87       0.1605
     17  C         61.8440  -17.4280  -87.1530 C.2    87  PHE87       0.2264
     18  O         61.7710  -16.6470  -86.1950 O.2    87  PHE87      -0.2867
     19  CB        59.4330  -17.2700  -87.7130 C.3    87  PHE87       0.0534
     20  CG        59.4940  -16.3510  -88.9070 C.ar   87  PHE87      -0.0203
     21  CD1       58.6960  -16.6020  -90.0260 C.ar   87  PHE87      -0.0042
     22  CD2       60.2690  -15.1880  -88.8840 C.ar   87  PHE87      -0.0042
     23  CE1       58.6560  -15.7230  -91.0920 C.ar   87  PHE87      -0.0003
     24  CE2       60.2360  -14.2940  -89.9520 C.ar   87  PHE87      -0.0003
     25  CZ        59.4190  -14.5640  -91.0670 C.ar   87  PHE87      -0.0000
     26  N         63.3670  -10.0580  -90.8940 N.3    92  THR92      -0.1218
     27  CA        61.9790  -10.0300  -90.4700 C.3    92  THR92       0.1862
     28  C         61.7140  -10.3560  -89.0050 C.2    92  THR92       0.2287
     29  O         60.8610   -9.7290  -88.4030 O.2    92  THR92      -0.2866
     30  CB        61.1740  -10.9120  -91.3980 C.3    92  THR92       0.1770
     31  OG1       61.6280  -10.6500  -92.7230 O.3    92  THR92      -0.2211
     32  CG2       59.7000  -10.5930  -91.3160 C.3    92  THR92       0.0375
     33  N         53.4990  -20.7240  -95.8360 N.3   176  THR176     -0.1218
     34  CA        52.4450  -19.7240  -95.9750 C.3   176  THR176      0.1862
     35  C         51.0210  -20.2690  -96.0320 C.2   176  THR176      0.2287
     36  O         50.0720  -19.5990  -95.5630 O.2   176  THR176     -0.2866
     37  CB        52.6600  -18.8720  -97.2380 C.3   176  THR176      0.1770
     38  OG1       52.6510  -19.7210  -98.3930 O.3   176  THR176     -0.2211
     39  CG2       53.9860  -18.1430  -97.1730 C.3   176  THR176      0.0375
     40  N         64.9510  -16.1330  -96.2730 N.3   235  LEU235     -0.1245
     41  CA        63.8590  -15.1920  -96.3310 C.3   235  LEU235      0.1561
     42  C         63.6800  -14.6610  -97.7430 C.2   235  LEU235      0.2260
     43  O         62.5390  -14.5190  -98.2170 O.2   235  LEU235     -0.2867
     44  CB        64.0490  -14.0040  -95.3770 C.3   235  LEU235      0.0270
     45  CG        62.8080  -13.1160  -95.6030 C.3   235  LEU235      0.0019
     46  CD1       61.6740  -13.5370  -94.7070 C.3   235  LEU235      0.0001
     47  CD2       63.1590  -11.6910  -95.4110 C.3   235  LEU235      0.0001
     48  N         61.6920  -16.9430  -99.8300 N.3   238  LEU238     -0.1231
     49  CA        60.2930  -16.9320  -99.4800 C.3   238  LEU238      0.1693
     50  C         59.6240  -15.7610 -100.1770 C.2   238  LEU238      0.2592
     51  O         58.5180  -15.8710 -100.6670 O.2   238  LEU238     -0.2718
     52  CB        60.1150  -16.8340  -97.9600 C.3   238  LEU238      0.0284
     53  CG        58.6510  -17.0120  -97.5420 C.3   238  LEU238      0.0019
     54  CD1       58.1440  -18.4200  -97.9150 C.3   238  LEU238      0.0001
     55  CD2       58.5520  -16.7850  -96.0650 C.3   238  LEU238      0.0001
     56  N         60.3110  -14.6370 -100.2490 N.am  239  GLY239     -0.1957
     57  CA        59.7260  -13.4860 -100.8870 C.3   239  GLY239      0.1869
     58  C         59.7280  -13.5930 -102.3890 C.2   239  GLY239      0.2309
     59  O         58.7850  -13.1430 -103.0470 O.2   239  GLY239     -0.2863
     60  N         56.7020  -16.6450 -103.5470 N.3   242  ASP242     -0.1225
     61  CA        55.3130  -16.7970 -103.1400 C.3   242  ASP242      0.1805
     62  C         54.4600  -15.5700 -103.0050 C.2   242  ASP242      0.2598
     63  O         53.4820  -15.5910 -102.2620 O.2   242  ASP242     -0.2718
     64  CB        55.3110  -17.5020 -101.7880 C.3   242  ASP242      0.1424
     65  CG        54.0830  -18.3390 -101.5550 C.2   242  ASP242      0.3668
     66  OD1       52.9790  -17.7810 -101.4550 O.co2 242  ASP242     -0.2456
     67  OD2       54.2390  -19.5820 -101.4600 O.co2 242  ASP242     -0.2456
     68  N         54.7870  -14.4870 -103.6670 N.am  243  THR243     -0.1953
     69  CA        53.9550  -13.3330 -103.4560 C.3   243  THR243      0.1897
     70  C         53.5020  -12.7440 -104.7480 C.2   243  THR243      0.2313
     71  O         52.3150  -12.6780 -105.0150 O.2   243  THR243     -0.2863
     72  CB        54.7040  -12.2970 -102.6170 C.3   243  THR243      0.1794
     73  OG1       56.0240  -12.1090 -103.1440 O.3   243  THR243     -0.2208
     74  CG2       54.8010  -12.7670 -101.2120 C.3   243  THR243      0.0378
     75  N         48.8160  -10.5530  -98.1270 N.3   286  VAL286     -0.1245
     76  CA        49.6830  -10.8910  -97.0070 C.3   286  VAL286      0.1561
     77  C         49.1050  -10.4840  -95.6310 C.2   286  VAL286      0.2260
     78  O         48.4610   -9.4290  -95.4860 O.2   286  VAL286     -0.2867
     79  CB        51.0740  -10.1990  -97.1500 C.3   286  VAL286      0.0252
     80  CG1       52.0630  -10.8250  -96.2000 C.3   286  VAL286      0.0019
     81  CG2       51.5530  -10.2760  -98.5520 C.3   286  VAL286      0.0019
     82  N         50.7670  -11.1530  -91.6880 N.3   288  ASP288     -0.1239
     83  CA        51.5820  -11.8030  -90.6730 C.3   288  ASP288      0.1674
     84  C         51.3910  -10.9640  -89.4200 C.2   288  ASP288      0.2266
     85  O         50.5090  -10.0920  -89.4010 O.2   288  ASP288     -0.2867
     86  CB        53.0510  -11.9480  -91.0870 C.3   288  ASP288      0.1410
     87  CG        53.7880  -10.6500  -91.1520 C.2   288  ASP288      0.3668
     88  OD1       53.1350   -9.6140  -91.3770 O.co2 288  ASP288     -0.2456
     89  OD2       55.0330  -10.6820  -91.0220 O.co2 288  ASP288     -0.2456
     90  N         48.0130   -6.9680  -93.0250 N.3   313  GLN313     -0.1245
     91  CA        48.4170   -5.9160  -93.9710 C.3   313  GLN313      0.1566
     92  C         47.3490   -5.7500  -95.0500 C.2   313  GLN313      0.2260
     93  O         47.0750   -4.6620  -95.5130 O.2   313  GLN313     -0.2867
     94  CB        49.7580   -6.2790  -94.6150 C.3   313  GLN313      0.0367
     95  CG        50.9310   -6.1570  -93.6860 C.3   313  GLN313      0.0905
     96  CD        51.4160   -7.4710  -93.0300 C.2   313  GLN313      0.2608
     97  OE1       50.6500   -8.4140  -92.7780 O.2   313  GLN313     -0.2717
     98  NE2       52.7160   -7.5060  -92.7240 N.am  313  GLN313     -0.0878
     99  N         58.2600   -3.7290  -97.0980 N.3   348  CYS348     -0.1235
    100  CA        58.7620   -4.6590  -98.1130 C.3   348  CYS348      0.1677
    101  C         59.9390   -4.2040  -98.9650 C.2   348  CYS348      0.2270
    102  O         59.8620   -3.2220  -99.6880 O.2   348  CYS348     -0.2867
    103  CB        57.6240   -5.0820  -99.0380 C.3   348  CYS348      0.0956
    104  SG        58.1310   -6.3490 -100.2190 S.3   348  CYS348     -0.0801
    105  N         49.3190  -17.0930  -94.4920 N.3   386  ILE386     -0.1231
    106  CA        50.1580  -15.9300  -94.2720 C.3   386  ILE386      0.1692
    107  C         50.0840  -15.0670  -95.5450 C.2   386  ILE386      0.2591
    108  O         50.0100  -13.8400  -95.4950 O.2   386  ILE386     -0.2718
    109  CB        51.6390  -16.3350  -93.9940 C.3   386  ILE386      0.0266
    110  CG1       51.7400  -17.1830  -92.7040 C.3   386  ILE386      0.0019
    111  CG2       52.5050  -15.0800  -93.8770 C.3   386  ILE386      0.0020
    112  CD1       51.1930  -16.5250  -91.4800 C.3   386  ILE386      0.0001
    113  N         50.1120  -15.7370  -96.6890 N.am  387  VAL387     -0.1980
    114  CA        50.0000  -15.0970  -97.9800 C.3   387  VAL387      0.1595
    115  C         48.8750  -15.8820  -98.5930 C.2   387  VAL387      0.2287
    116  O         48.8990  -17.1110  -98.5260 O.2   387  VAL387     -0.2864
    117  CB        51.2330  -15.3390  -98.8470 C.3   387  VAL387      0.0276
    118  CG1       51.0230  -14.6720 -100.2150 C.3   387  VAL387      0.0022
    119  CG2       52.4730  -14.8260  -98.1490 C.3   387  VAL387      0.0022
@<TRIPOS>BOND
     1    71    70    2
     2    70    69    1
     3    68    69    1
     4    68    62   am
     5    60    61    1
     6    69    72    1
     7    73    72    1
     8    61    62    1
     9    61    64    1
    10    59    58    2
    11    62    63    2
    12    72    74    1
    13    58    57    1
    14    64    65    1
    15    65    67   ar
    16    65    66   ar
    17    57    56    1
    18    51    50    2
    19    56    50   am
    20   104   103    1
    21   118   117    1
    22    50    49    1
    23    48    49    1
    24   102   101    2
    25    49    52    1
    26   103   100    1
    27   101   100    1
    28   117   119    1
    29   117   114    1
    30   115   116    2
    31   115   114    1
    32    81    79    1
    33    38    37    1
    34    43    42    2
    35    75    76    1
    36   100    99    1
    37   114   113    1
    38    52    53    1
    39    54    53    1
    40    42    41    1
    41    53    55    1
    42    37    39    1
    43    37    34    1
    44    79    76    1
    45    79    80    1
    46    76    77    1
    47   113   107   am
    48    41    40    1
    49    41    44    1
    50    35    34    1
    51    35    36    2
    52    34    33    1
    53    77    78    2
    54    45    47    1
    55    45    44    1
    56    45    46    1
    57   107   108    2
    58   107   106    1
    59    93    92    2
    60    92    91    1
    61    94    91    1
    62    94    95    1
    63   105   106    1
    64   106   109    1
    65   109   111    1
    66   109   110    1
    67    91    90    1
    68    95    96    1
    69    12    14   ar
    70    12    10   ar
    71    96    97    2
    72    96    98   am
    73    14    13   ar
    74    31    30    1
    75   110   112    1
    76    10     9   ar
    77    10     8   ar
    78     9     7   ar
    79    82    83    1
    80    13    11   ar
    81    30    32    1
    82    30    27    1
    83    88    87   ar
    84    87    86    1
    85    87    89   ar
    86    23    25   ar
    87    23    21   ar
    88    86    83    1
    89    25    24   ar
    90    26    27    1
    91    83    84    1
    92     8    11   ar
    93     8     6   ar
    94    27    28    1
    95     7     6   ar
    96    21    20   ar
    97    24    22   ar
    98     6     5    1
    99    84    85    2
   100    28    29    2
   101    20    22   ar
   102    20    19    1
   103     5     2    1
   104    19    16    1
   105     2     1    1
   106     2     3    1
   107    16    17    1
   108    16    15    1
   109    17    18    2
   110     3     4    2
