@<TRIPOS>MOLECULE
tmp/1mq0B00.pdb
 104 98 0 0 0
SMALL
GASTEIGER

@<TRIPOS>ATOM
      1  N         42.5160   88.2190  112.8130 N.3    22  SER22      -0.1217
      2  CA        42.6580   88.6730  114.1840 C.3    22  SER22       0.1889
      3  C         44.0400   88.3250  114.7210 C.2    22  SER22       0.2288
      4  O         44.5170   88.9500  115.6700 O.2    22  SER22      -0.2866
      5  CB        41.6030   88.0130  115.0740 C.3    22  SER22       0.2089
      6  OG        41.8330   86.6150  115.1670 O.3    22  SER22      -0.2183
      7  N         44.5780   86.1500  116.4040 N.3    24  PHE24      -0.1241
      8  CA        44.2590   85.7200  117.7550 C.3    24  PHE24       0.1605
      9  C         43.8850   84.2430  117.7140 C.2    24  PHE24       0.2264
     10  O         42.7100   83.8880  117.7090 O.2    24  PHE24      -0.2867
     11  CB        43.1040   86.5680  118.2950 C.3    24  PHE24       0.0534
     12  CG        42.7870   86.3240  119.7420 C.ar   24  PHE24      -0.0203
     13  CD1       41.9050   85.3140  120.1180 C.ar   24  PHE24      -0.0042
     14  CD2       43.3700   87.1090  120.7340 C.ar   24  PHE24      -0.0042
     15  CE1       41.6070   85.0850  121.4630 C.ar   24  PHE24      -0.0003
     16  CE2       43.0820   86.8930  122.0870 C.ar   24  PHE24      -0.0003
     17  CZ        42.1980   85.8780  122.4530 C.ar   24  PHE24      -0.0000
     18  N         43.0980   80.3840  118.6420 N.3    26  VAL26      -0.1245
     19  CA        42.3470   79.7960  119.7350 C.3    26  VAL26       0.1561
     20  C         42.1590   78.3200  119.4850 C.2    26  VAL26       0.2260
     21  O         41.8030   77.9160  118.3770 O.2    26  VAL26      -0.2867
     22  CB        40.9590   80.4290  119.8910 C.3    26  VAL26       0.0252
     23  CG1       40.2110   79.7590  121.0300 C.3    26  VAL26       0.0019
     24  CG2       41.0920   81.9080  120.1600 C.3    26  VAL26       0.0019
     25  N         39.7430   78.2360  115.9380 N.3    42  ASN42      -0.1240
     26  CA        38.9060   79.2420  115.3040 C.3    42  ASN42       0.1653
     27  C         39.2380   79.2850  113.8220 C.2    42  ASN42       0.2266
     28  O         40.3860   79.0840  113.4270 O.2    42  ASN42      -0.2867
     29  CB        39.0910   80.6120  115.9780 C.3    42  ASN42       0.1155
     30  CG        40.5480   80.9920  116.1710 C.2    42  ASN42       0.2627
     31  OD1       41.4070   80.1340  116.3730 O.2    42  ASN42      -0.2716
     32  ND2       40.8280   82.2910  116.1360 N.am   42  ASN42      -0.0877
     33  N         38.4510   81.8100  110.7470 N.3    44  GLU44      -0.1245
     34  CA        37.9200   83.0800  110.3040 C.3    44  GLU44       0.1567
     35  C         37.5770   83.1210  108.8310 C.2    44  GLU44       0.2260
     36  O         37.8280   82.1730  108.0900 O.2    44  GLU44      -0.2867
     37  CB        38.9110   84.1850  110.6800 C.3    44  GLU44       0.0388
     38  CG        39.1100   84.2570  112.1950 C.3    44  GLU44       0.1160
     39  CD        40.1260   85.2830  112.6500 C.2    44  GLU44       0.3649
     40  OE1       40.0570   85.6650  113.8360 O.co2  44  GLU44      -0.2457
     41  OE2       40.9900   85.6960  111.8420 O.co2  44  GLU44      -0.2457
     42  N         34.2210   81.1060  112.7030 N.3    52  ILE52      -0.1231
     43  CA        33.7390   80.1730  113.7140 C.3    52  ILE52       0.1692
     44  C         34.7650   80.0090  114.8380 C.2    52  ILE52       0.2592
     45  O         35.9750   80.0700  114.6120 O.2    52  ILE52      -0.2718
     46  CB        33.4060   78.7800  113.1060 C.3    52  ILE52       0.0266
     47  CG1       32.5800   77.9660  114.1020 C.3    52  ILE52       0.0019
     48  CG2       34.6640   78.0040  112.8080 C.3    52  ILE52       0.0020
     49  CD1       31.1960   78.5530  114.3780 C.3    52  ILE52       0.0001
     50  N         34.2720   79.7980  116.0520 N.am   53  CYS53      -0.1956
     51  CA        35.1310   79.6450  117.2150 C.3    53  CYS53       0.1843
     52  C         35.7100   78.2540  117.3630 C.2    53  CYS53       0.2625
     53  O         35.2700   77.3050  116.7260 O.2    53  CYS53      -0.2714
     54  CB        34.3580   80.0160  118.4770 C.3    53  CYS53       0.0997
     55  SG        33.7250   81.6870  118.4280 S.3    53  CYS53      -0.0797
     56  N         36.7110   78.1470  118.2210 N.am   54  ALA54      -0.1963
     57  CA        37.3840   76.8810  118.4610 C.3    54  ALA54       0.1728
     58  C         36.4640   75.8660  119.1520 C.2    54  ALA54       0.2616
     59  O         36.4290   74.6930  118.7730 O.2    54  ALA54      -0.2715
     60  CB        38.6310   77.1280  119.2920 C.3    54  ALA54       0.0334
     61  N         35.7190   76.3210  120.1580 N.am   55  GLU55      -0.1977
     62  CA        34.8010   75.4540  120.8890 C.3    55  GLU55       0.1602
     63  C         33.7440   74.8800  119.9420 C.2    55  GLU55       0.2287
     64  O         33.4390   73.6850  119.9750 O.2    55  GLU55      -0.2864
     65  CB        34.0900   76.2270  122.0090 C.3    55  GLU55       0.0415
     66  CG        34.9860   77.0120  122.9680 C.3    55  GLU55       0.1163
     67  CD        35.2860   78.4300  122.4840 C.2    55  GLU55       0.3649
     68  OE1       35.9600   78.5840  121.4420 O.co2  55  GLU55      -0.2457
     69  OE2       34.8410   79.3910  123.1510 O.co2  55  GLU55      -0.2457
     70  N         39.8140   75.3000  126.6760 N.3    75  ILE75      -0.1245
     71  CA        40.0750   76.3380  125.6890 C.3    75  ILE75       0.1561
     72  C         41.4760   76.9150  125.8940 C.2    75  ILE75       0.2260
     73  O         41.8990   77.1480  127.0290 O.2    75  ILE75      -0.2867
     74  CB        39.0620   77.4990  125.8090 C.3    75  ILE75       0.0252
     75  CG1       37.6530   76.9500  126.0410 C.3    75  ILE75       0.0019
     76  CG2       39.0940   78.3470  124.5380 C.3    75  ILE75       0.0019
     77  CD1       36.6250   78.0220  126.3010 C.3    75  ILE75       0.0001
     78  N         41.2250   82.3060  128.8990 N.3    84  ILE84      -0.1231
     79  CA        40.4190   82.3570  127.6890 C.3    84  ILE84       0.1692
     80  C         39.0060   81.8190  127.9430 C.2    84  ILE84       0.2593
     81  O         38.8030   80.6220  128.1470 O.2    84  ILE84      -0.2718
     82  CB        41.1110   81.6030  126.5180 C.3    84  ILE84       0.0266
     83  CG1       40.3100   81.8140  125.2290 C.3    84  ILE84       0.0019
     84  CG2       41.2890   80.1250  126.8540 C.3    84  ILE84       0.0020
     85  CD1       40.1760   83.2740  124.8150 C.3    84  ILE84       0.0001
     86  N         38.0370   82.7320  127.9470 N.am   85  SER85      -0.1939
     87  CA        36.6310   82.3990  128.1940 C.3    85  SER85       0.2040
     88  C         35.7890   82.3090  126.9160 C.2    85  SER85       0.2485
     89  O         35.9350   83.1230  126.0040 O.2    85  SER85      -0.2729
     90  CB        36.0210   83.4370  129.1400 C.3    85  SER85       0.2129
     91  OG        34.6080   83.4130  129.0800 O.3    85  SER85      -0.2179
     92  N         34.8800   81.3210  126.8460 N.am   86  PRO86      -0.2715
     93  CA        34.0150   81.1220  125.6780 C.3    86  PRO86       0.1536
     94  C         33.0380   82.2730  125.4960 C.2    86  PRO86       0.2598
     95  O         32.5730   82.8430  126.4770 O.2    86  PRO86      -0.2715
     96  CB        33.3040   79.8220  126.0120 C.3    86  PRO86       0.0310
     97  CG        33.1490   79.9320  127.4990 C.3    86  PRO86       0.0237
     98  CD        34.5100   80.3900  127.9260 C.3    86  PRO86       0.0939
     99  N         32.7190   82.6100  124.2490 N.am   87  CYS87      -0.1968
    100  CA        31.7800   83.7020  123.9920 C.3    87  CYS87       0.1712
    101  C         30.3350   83.2200  124.1460 C.2    87  CYS87       0.2296
    102  O         30.0730   82.0200  124.1590 O.2    87  CYS87      -0.2864
    103  CB        31.9850   84.2810  122.5890 C.3    87  CYS87       0.0983
    104  SG        31.2750   83.3140  121.2380 S.3    87  CYS87      -0.0798
@<TRIPOS>BOND
     1    36    35    2
     2    35    34    1
     3    34    37    1
     4    34    33    1
     5    37    38    1
     6    41    39   ar
     7    38    39    1
     8    39    40   ar
     9    42    43    1
    10    48    46    1
    11     1     2    1
    12    46    43    1
    13    46    47    1
    14    28    27    2
    15    43    44    1
    16    27    26    1
    17    47    49    1
    18     2     3    1
    19     2     5    1
    20    45    44    2
    21     3     4    2
    22    44    50   am
    23     5     6    1
    24    26    25    1
    25    26    29    1
    26    29    30    1
    27    50    51    1
    28    32    30   am
    29    30    31    2
    30     7     8    1
    31    53    52    2
    32    51    52    1
    33    51    54    1
    34    52    56   am
    35    10     9    2
    36     9     8    1
    37     8    11    1
    38    56    57    1
    39    11    12    1
    40    21    20    2
    41    55    54    1
    42    57    58    1
    43    57    60    1
    44    18    19    1
    45    59    58    2
    46    58    61   am
    47    20    19    1
    48    19    22    1
    49    12    13   ar
    50    12    14   ar
    51    22    24    1
    52    22    23    1
    53    63    64    2
    54    63    62    1
    55    13    15   ar
    56    61    62    1
    57    14    16   ar
    58    62    65    1
    59   104   103    1
    60    68    67   ar
    61    15    17   ar
    62    65    66    1
    63    16    17   ar
    64    67    66    1
    65    67    69   ar
    66   103   100    1
    67   100   101    1
    68   100    99    1
    69   101   102    2
    70    99    94   am
    71    76    74    1
    72    85    83    1
    73    83    82    1
    74    94    93    1
    75    94    95    2
    76    93    96    1
    77    93    92    1
    78    71    74    1
    79    71    72    1
    80    71    70    1
    81    74    75    1
    82    72    73    2
    83    89    88    2
    84    96    97    1
    85    75    77    1
    86    82    84    1
    87    82    79    1
    88    92    88   am
    89    92    98    1
    90    88    87    1
    91    97    98    1
    92    79    80    1
    93    79    78    1
    94    80    86   am
    95    80    81    2
    96    86    87    1
    97    87    90    1
    98    91    90    1
