@<TRIPOS>MOLECULE
tmp/1mq2D00.pdb
 112 105 0 0 0
SMALL
GASTEIGER

@<TRIPOS>ATOM
      1  N         26.0080    5.5320    8.0710 N.3    28  ASN28      -0.1240
      2  CA        25.1150    5.0110    7.0420 C.3    28  ASN28       0.1653
      3  C         25.8500    3.9980    6.1730 C.2    28  ASN28       0.2266
      4  O         25.2780    2.9840    5.7730 O.2    28  ASN28      -0.2867
      5  CB        24.5800    6.1510    6.1670 C.3    28  ASN28       0.1155
      6  CG        23.7060    7.1260    6.9410 C.2    28  ASN28       0.2627
      7  OD1       22.8580    6.7230    7.7390 O.2    28  ASN28      -0.2716
      8  ND2       23.9060    8.4180    6.7000 N.am   28  ASN28      -0.0877
      9  N         26.2310    0.7980    8.0490 N.3    31  ARG31      -0.1245
     10  CA        24.8980    0.2340    8.2080 C.3    31  ARG31       0.1563
     11  C         24.4650   -0.4290    6.8980 C.2    31  ARG31       0.2260
     12  O         23.8960   -1.5220    6.9010 O.2    31  ARG31      -0.2867
     13  CB        23.9100    1.3320    8.6130 C.3    31  ARG31       0.0307
     14  CG        22.5710    0.8140    9.1060 C.3    31  ARG31       0.0489
     15  CD        21.6500    1.9530    9.5180 C.3    31  ARG31       0.2205
     16  NE        20.3510    1.4590    9.9720 N.pl3  31  ARG31      -0.0865
     17  CZ        19.3290    2.2340   10.3220 C.cat  31  ARG31       0.5346
     18  NH1       19.4430    3.5560   10.2750 N.pl3  31  ARG31       0.1354
     19  NH2       18.1900    1.6850   10.7210 N.pl3  31  ARG31       0.1354
     20  N          3.5140    3.0180    8.9660 N.3   170  GLY170     -0.1210
     21  CA         4.7050    2.2900    9.3700 C.3   170  GLY170      0.1956
     22  C          4.6500    0.7850    9.1810 C.2   170  GLY170      0.2612
     23  O          3.8910    0.2730    8.3570 O.2   170  GLY170     -0.2717
     24  N          5.4760    0.0790    9.9490 N.am  171  SER171     -0.1952
     25  CA         5.5480   -1.3780    9.8990 C.3   171  SER171      0.1924
     26  C          4.1960   -2.0180   10.2080 C.2   171  SER171      0.2314
     27  O          3.8780   -3.0900    9.6940 O.2   171  SER171     -0.2863
     28  CB         6.6020   -1.8820   10.8880 C.3   171  SER171      0.2116
     29  OG         6.3560   -1.3800   12.1920 O.3   171  SER171     -0.2180
     30  N          2.1800   -2.7530    7.1920 N.3   174  ARG174     -0.1245
     31  CA         2.7050   -3.9190    6.4850 C.3   174  ARG174      0.1563
     32  C          2.4060   -5.2420    7.1940 C.2   174  ARG174      0.2260
     33  O          2.8000   -6.3100    6.7220 O.2   174  ARG174     -0.2867
     34  CB         4.2130   -3.7640    6.2600 C.3   174  ARG174      0.0307
     35  CG         4.5700   -2.7040    5.2280 C.3   174  ARG174      0.0489
     36  CD         5.6180   -1.7330    5.7430 C.3   174  ARG174      0.2205
     37  NE         6.9090   -2.3670    5.9940 N.pl3 174  ARG174     -0.0865
     38  CZ         7.9450   -1.7550    6.5590 C.cat 174  ARG174      0.5346
     39  NH1        7.8480   -0.4860    6.9390 N.pl3 174  ARG174      0.1354
     40  NH2        9.0850   -2.4080    6.7380 N.pl3 174  ARG174      0.1354
     41  N          6.5070   -3.2480   16.2890 N.3   179  SER179     -0.1217
     42  CA         6.4580   -1.8550   15.8450 C.3   179  SER179      0.1889
     43  C          7.5370   -0.9760   16.4750 C.2   179  SER179      0.2288
     44  O          8.3960   -0.4370   15.7720 O.2   179  SER179     -0.2866
     45  CB         5.0790   -1.2470   16.1200 C.3   179  SER179      0.2089
     46  OG         4.0900   -1.8000   15.2680 O.3   179  SER179     -0.2183
     47  N          7.1080    1.8970   17.7430 N.3   181  ASP181     -0.1239
     48  CA         6.7560    3.3040   17.5630 C.3   181  ASP181      0.1674
     49  C          5.3450    3.4000   16.9810 C.2   181  ASP181      0.2266
     50  O          5.0020    2.6800   16.0420 O.2   181  ASP181     -0.2867
     51  CB         7.7580    3.9780   16.6150 C.3   181  ASP181      0.1410
     52  CG         7.6000    5.4890   16.5650 C.2   181  ASP181      0.3668
     53  OD1        6.9140    5.9900   15.6470 O.co2 181  ASP181     -0.2456
     54  OD2        8.1740    6.1790   17.4350 O.co2 181  ASP181     -0.2456
     55  N          3.9820    7.0630    1.8240 N.3   262  TYR262     -0.1227
     56  CA         5.3960    7.2820    2.1110 C.3   262  TYR262      0.1736
     57  C          5.7590    6.7360    3.4890 C.2   262  TYR262      0.2595
     58  O          6.7320    5.9940    3.6350 O.2   262  TYR262     -0.2718
     59  CB         5.7430    8.7730    2.0300 C.3   262  TYR262      0.0548
     60  CG         7.1690    9.0860    2.4330 C.ar  262  TYR262     -0.0200
     61  CD1        8.2320    8.8280    1.5670 C.ar  262  TYR262     -0.0009
     62  CD2        7.4580    9.6080    3.6930 C.ar  262  TYR262     -0.0009
     63  CE1        9.5490    9.0800    1.9490 C.ar  262  TYR262      0.0417
     64  CE2        8.7690    9.8620    4.0850 C.ar  262  TYR262      0.0417
     65  CZ         9.8090    9.5950    3.2100 C.ar  262  TYR262      0.1957
     66  OH        11.1080    9.8340    3.6000 O.3   262  TYR262     -0.2866
     67  N          4.9730    7.1090    4.4950 N.am  263  PHE263     -0.1976
     68  CA         5.2090    6.6590    5.8610 C.3   263  PHE263      0.1639
     69  C          4.7390    5.2280    6.1060 C.2   263  PHE263      0.2290
     70  O          4.9870    4.6590    7.1710 O.2   263  PHE263     -0.2864
     71  CB         4.5700    7.6260    6.8620 C.3   263  PHE263      0.0560
     72  CG         5.2570    8.9620    6.9320 C.ar  263  PHE263     -0.0200
     73  CD1        6.4880    9.0920    7.5650 C.ar  263  PHE263     -0.0042
     74  CD2        4.6820   10.0880    6.3540 C.ar  263  PHE263     -0.0042
     75  CE1        7.1380   10.3230    7.6210 C.ar  263  PHE263     -0.0003
     76  CE2        5.3220   11.3230    6.4030 C.ar  263  PHE263     -0.0003
     77  CZ         6.5540   11.4410    7.0380 C.ar  263  PHE263     -0.0000
     78  N          5.7380    2.8100    4.1960 N.3   265  GLY265     -0.1210
     79  CA         6.8990    2.0010    3.8750 C.3   265  GLY265      0.1956
     80  C          6.7170    1.1570    2.6280 C.2   265  GLY265      0.2613
     81  O          5.6760    1.2300    1.9720 O.2   265  GLY265     -0.2717
     82  N          7.7220    0.3520    2.2920 N.am  266  SER266     -0.1938
     83  CA         8.9590    0.2620    3.0680 C.3   266  SER266      0.2055
     84  C         10.0320    1.2080    2.5320 C.2   266  SER266      0.2643
     85  O          9.7940    1.9630    1.5860 O.2   266  SER266     -0.2714
     86  CB         9.4900   -1.1740    3.0510 C.3   266  SER266      0.2130
     87  OG         8.5370   -2.0800    3.5750 O.3   266  SER266     -0.2179
     88  N         11.2120    1.1570    3.1460 N.am  267  ASP267     -0.1971
     89  CA        12.3390    1.9940    2.7430 C.3   267  ASP267      0.1709
     90  C         12.8210    1.6320    1.3380 C.2   267  ASP267      0.2293
     91  O         13.2520    2.5020    0.5780 O.2   267  ASP267     -0.2864
     92  CB        13.4870    1.8720    3.7550 C.3   267  ASP267      0.1436
     93  CG        13.9140    0.4320    3.9930 C.2   267  ASP267      0.3671
     94  OD1       13.1990   -0.2920    4.7180 O.co2 267  ASP267     -0.2456
     95  OD2       14.9670    0.0260    3.4590 O.co2 267  ASP267     -0.2456
     96  N         10.0100    2.6650   -1.3650 N.3   270  ASN270     -0.1225
     97  CA        10.0490    4.0720   -1.7590 C.3   270  ASN270      0.1785
     98  C         11.0510    4.2880   -2.8880 C.2   270  ASN270      0.2597
     99  O         10.8020    5.0730   -3.8020 O.2   270  ASN270     -0.2718
    100  CB        10.4130    4.9630   -0.5660 C.3   270  ASN270      0.1169
    101  CG         9.2450    5.1850    0.3790 C.2   270  ASN270      0.2627
    102  OD1        8.1860    5.6660   -0.0260 O.2   270  ASN270     -0.2716
    103  ND2        9.4390    4.8510    1.6490 N.am  270  ASN270     -0.0877
    104  N         12.1750    3.5760   -2.8190 N.am  271  LYS271     -0.1980
    105  CA        13.2290    3.6690   -3.8280 C.3   271  LYS271      0.1596
    106  C         12.7590    3.1520   -5.1830 C.2   271  LYS271      0.2287
    107  O         12.9200    3.8230   -6.2040 O.2   271  LYS271     -0.2864
    108  CB        14.4650    2.8830   -3.3810 C.3   271  LYS271      0.0298
    109  CG        15.2560    3.5280   -2.2530 C.3   271  LYS271      0.0038
    110  CD        15.9320    4.8110   -2.7190 C.3   271  LYS271      0.0206
    111  CE        16.8000    5.4140   -1.6240 C.3   271  LYS271      0.1093
    112  NZ        17.4980    6.6480   -2.0860 N.3   271  LYS271     -0.1314
@<TRIPOS>BOND
     1   107   106    2
     2   106   105    1
     3   105   108    1
     4   105   104    1
     5    99    98    2
     6   108   109    1
     7    98   104   am
     8    98    97    1
     9   110   109    1
    10   110   111    1
    11   112   111    1
    12    97    96    1
    13    97   100    1
    14   100   101    1
    15   102   101    2
    16   101   103   am
    17    91    90    2
    18    90    89    1
    19    61    63   ar
    20    61    60   ar
    21    85    84    2
    22    55    56    1
    23    63    65   ar
    24    81    80    2
    25    59    56    1
    26    59    60    1
    27    56    57    1
    28    82    80   am
    29    82    83    1
    30    60    62   ar
    31    84    83    1
    32    84    88   am
    33    80    79    1
    34    89    88    1
    35    89    92    1
    36    86    83    1
    37    86    87    1
    38    65    66    1
    39    65    64   ar
    40    95    93   ar
    41    57    58    2
    42    57    67   am
    43    62    64   ar
    44    92    93    1
    45    79    78    1
    46    93    94   ar
    47    67    68    1
    48    35    36    1
    49    35    34    1
    50    36    37    1
    51     4     3    2
    52    68    69    1
    53    68    71    1
    54    37    38    2
    55    69    70    2
    56     5     6    1
    57     5     2    1
    58     3     2    1
    59    34    31    1
    60    74    76   ar
    61    74    72   ar
    62    76    77   ar
    63    31    30    1
    64    31    32    1
    65    38    40    1
    66    38    39    1
    67     8     6   am
    68    33    32    2
    69    71    72    1
    70    11    12    2
    71    11    10    1
    72    72    73   ar
    73     6     7    2
    74    77    75   ar
    75     2     1    1
    76    73    75   ar
    77     9    10    1
    78    10    13    1
    79    23    22    2
    80    13    14    1
    81    20    21    1
    82    14    15    1
    83    22    21    1
    84    22    24   am
    85    15    16    1
    86    27    26    2
    87    25    24    1
    88    25    26    1
    89    25    28    1
    90    16    17    2
    91    18    17    1
    92    17    19    1
    93    28    29    1
    94    46    45    1
    95    53    52   ar
    96    44    43    2
    97    42    45    1
    98    42    41    1
    99    42    43    1
   100    50    49    2
   101    52    51    1
   102    52    54   ar
   103    51    48    1
   104    49    48    1
   105    48    47    1
