@<TRIPOS>MOLECULE
tmp/1mqbA00.pdb
 154 144 0 0 0
SMALL
GASTEIGER

@<TRIPOS>ATOM
      1  N         32.3080   43.6860   47.7300 N.3    15  ILE15      -0.1231
      2  CA        33.1150   43.0580   46.6790 C.3    15  ILE15       0.1692
      3  C         33.3510   41.5940   46.9330 C.2    15  ILE15       0.2593
      4  O         34.1590   40.9920   46.2660 O.2    15  ILE15      -0.2718
      5  CB        34.5350   43.7700   46.4780 C.3    15  ILE15       0.0266
      6  CG1       35.5460   43.2970   47.5570 C.3    15  ILE15       0.0019
      7  CG2       34.3970   45.2960   46.3420 C.3    15  ILE15       0.0020
      8  CD1       36.3400   44.3780   48.3350 C.3    15  ILE15       0.0001
      9  N         32.6690   40.9950   47.8850 N.am   16  GLY16      -0.1942
     10  CA        32.9800   39.6300   48.2470 C.3    16  GLY16       0.2014
     11  C         32.3420   39.2090   49.5470 C.2    16  GLY16       0.2639
     12  O         31.6630   39.9550   50.2050 O.2    16  GLY16      -0.2714
     13  N         32.5600   37.9600   49.8870 N.am   17  ALA17      -0.1963
     14  CA        31.9250   37.3480   51.0240 C.3    17  ALA17       0.1728
     15  C         32.9590   36.4740   51.6530 C.2    17  ALA17       0.2617
     16  O         33.6550   35.7360   50.9590 O.2    17  ALA17      -0.2715
     17  CB        30.7680   36.5170   50.5790 C.3    17  ALA17       0.0334
     18  N         33.0900   36.5580   52.9610 N.am   18  GLY18      -0.1940
     19  CA        34.0900   35.7750   53.6460 C.3    18  GLY18       0.2014
     20  C         33.4420   34.8900   54.6450 C.2    18  GLY18       0.2638
     21  O         32.2100   34.8650   54.7690 O.2    18  GLY18      -0.2714
     22  N         34.2820   34.1900   55.3990 N.am   19  GLU19      -0.1977
     23  CA        33.8030   33.3170   56.4550 C.3    19  GLU19       0.1602
     24  C         32.8840   34.0160   57.4870 C.2    19  GLU19       0.2287
     25  O         31.9810   33.3880   58.0260 O.2    19  GLU19      -0.2864
     26  CB        34.9920   32.6720   57.1920 C.3    19  GLU19       0.0415
     27  CG        34.6040   31.4710   58.0450 C.3    19  GLU19       0.1163
     28  CD        35.7960   30.8000   58.7360 C.2    19  GLU19       0.3649
     29  OE1       36.9340   30.7900   58.1880 O.co2  19  GLU19      -0.2457
     30  OE2       35.5850   30.2640   59.8530 O.co2  19  GLU19      -0.2457
     31  N         32.5460   41.5170   52.5770 N.3    23  VAL23      -0.1245
     32  CA        33.7530   42.2730   52.4270 C.3    23  VAL23       0.1561
     33  C         33.3920   43.3780   51.4910 C.2    23  VAL23       0.2260
     34  O         32.6410   43.1560   50.5770 O.2    23  VAL23      -0.2867
     35  CB        34.8800   41.3850   51.8740 C.3    23  VAL23       0.0252
     36  CG1       36.1970   42.1770   51.6680 C.3    23  VAL23       0.0019
     37  CG2       35.0990   40.2620   52.7950 C.3    23  VAL23       0.0019
     38  N         40.1590   47.4460   51.6850 N.3    37  ALA37      -0.1245
     39  CA        39.1680   46.3890   51.7660 C.3    37  ALA37       0.1562
     40  C         38.7110   46.3670   53.2130 C.2    37  ALA37       0.2260
     41  O         39.5010   46.6710   54.1130 O.2    37  ALA37      -0.2867
     42  CB        39.7560   45.0650   51.3950 C.3    37  ALA37       0.0290
     43  N         36.6390   43.8950   55.8770 N.3    39  LYS39      -0.1245
     44  CA        35.9860   42.6530   56.2550 C.3    39  LYS39       0.1561
     45  C         35.1080   42.9070   57.4620 C.2    39  LYS39       0.2260
     46  O         35.5970   43.3050   58.4870 O.2    39  LYS39      -0.2867
     47  CB        37.0350   41.5950   56.5980 C.3    39  LYS39       0.0271
     48  CG        37.9900   41.2520   55.4490 C.3    39  LYS39       0.0035
     49  CD        38.8270   40.0150   55.7900 C.3    39  LYS39       0.0206
     50  CE        39.2240   39.2460   54.5580 C.3    39  LYS39       0.1093
     51  NZ        40.1840   40.0720   53.6940 N.3    39  LYS39      -0.1314
     52  N         49.7080   40.9710   52.6750 N.3    69  ILE69      -0.1245
     53  CA        48.6220   41.9550   52.8860 C.3    69  ILE69       0.1561
     54  C         48.8160   42.7140   54.2030 C.2    69  ILE69       0.2260
     55  O         49.0980   42.1480   55.2540 O.2    69  ILE69      -0.2867
     56  CB        47.1980   41.3130   52.7880 C.3    69  ILE69       0.0252
     57  CG1       46.7970   41.1660   51.3300 C.3    69  ILE69       0.0019
     58  CG2       46.1400   42.1640   53.3890 C.3    69  ILE69       0.0019
     59  CD1       47.3450   39.8510   50.7260 C.3    69  ILE69       0.0001
     60  N         42.2000   46.3610   55.4970 N.3    85  THR85      -0.1203
     61  CA        43.4730   46.0610   54.8240 C.3    85  THR85       0.1994
     62  C         43.6970   46.9000   53.6040 C.2    85  THR85       0.2618
     63  O         42.8090   47.6080   53.1500 O.2    85  THR85      -0.2717
     64  CB        43.5520   44.5700   54.4410 C.3    85  THR85       0.1784
     65  OG1       42.5540   44.2630   53.4680 O.3    85  THR85      -0.2211
     66  CG2       43.2190   43.7100   55.6080 C.3    85  THR85       0.0376
     67  N         44.9060   46.8300   53.0600 N.am   86  GLU86      -0.1965
     68  CA        45.2200   47.5810   51.8590 C.3    86  GLU86       0.1733
     69  C         44.2950   47.0620   50.7960 C.2    86  GLU86       0.2616
     70  O         43.9880   45.8750   50.7570 O.2    86  GLU86      -0.2715
     71  CB        46.6990   47.4350   51.4580 C.3    86  GLU86       0.0429
     72  CG        47.2140   46.0080   51.4110 C.3    86  GLU86       0.1163
     73  CD        48.6310   45.9280   50.9290 C.2    86  GLU86       0.3649
     74  OE1       49.3510   45.0370   51.3890 O.co2  86  GLU86      -0.2457
     75  OE2       49.0280   46.7500   50.0920 O.co2  86  GLU86      -0.2457
     76  N         43.7950   47.9620   49.9640 N.am   87  TYR87      -0.1960
     77  CA        42.9370   47.5650   48.8710 C.3    87  TYR87       0.1771
     78  C         43.7590   46.9620   47.7220 C.2    87  TYR87       0.2619
     79  O         44.7440   47.5330   47.3140 O.2    87  TYR87      -0.2715
     80  CB        42.1050   48.7460   48.3420 C.3    87  TYR87       0.0574
     81  CG        41.1060   48.3000   47.2850 C.ar   87  TYR87      -0.0198
     82  CD1       41.0070   48.9520   46.0500 C.ar   87  TYR87      -0.0009
     83  CD2       40.2910   47.1830   47.5070 C.ar   87  TYR87      -0.0009
     84  CE1       40.0850   48.5190   45.0750 C.ar   87  TYR87       0.0417
     85  CE2       39.3760   46.7440   46.5400 C.ar   87  TYR87       0.0417
     86  CZ        39.2730   47.4070   45.3310 C.ar   87  TYR87       0.1957
     87  OH        38.3510   46.9410   44.3950 O.3    87  TYR87      -0.2866
     88  N         43.3190   45.8190   47.2230 N.am   88  MET88      -0.1977
     89  CA        43.9720   45.1020   46.1290 C.3    88  MET88       0.1605
     90  C         43.0030   45.0650   44.9390 C.2    88  MET88       0.2287
     91  O         42.0800   44.2600   44.9040 O.2    88  MET88      -0.2864
     92  CB        44.3070   43.6630   46.5670 C.3    88  MET88       0.0413
     93  CG        45.1630   43.5660   47.8130 C.3    88  MET88       0.0598
     94  SD        46.7910   44.2700   47.5990 S.3    88  MET88      -0.1393
     95  CE        47.5400   42.9480   46.6720 C.3    88  MET88       0.0692
     96  N         42.0060   41.8090   42.8860 N.3    91  GLY91      -0.1210
     97  CA        41.3220   40.7580   43.6110 C.3    91  GLY91       0.1956
     98  C         42.1660   39.5330   43.6670 C.2    91  GLY91       0.2611
     99  O         43.3730   39.6360   43.6240 O.2    91  GLY91      -0.2717
    100  N         41.5210   38.3750   43.7240 N.am   92  ALA92      -0.1979
    101  CA        42.1800   37.1240   43.9660 C.3    92  ALA92       0.1597
    102  C         42.9410   36.6760   42.7270 C.2    92  ALA92       0.2287
    103  O         42.5330   36.9400   41.6110 O.2    92  ALA92      -0.2864
    104  CB        41.1940   36.1220   44.3660 C.3    92  ALA92       0.0319
    105  N         41.4400   34.0290   39.9630 N.3    95  LYS95      -0.1245
    106  CA        40.2900   34.5250   39.2820 C.3    95  LYS95       0.1561
    107  C         40.7190   35.6370   38.3340 C.2    95  LYS95       0.2260
    108  O         40.2500   35.6930   37.1950 O.2    95  LYS95      -0.2867
    109  CB        39.2370   34.9490   40.3430 C.3    95  LYS95       0.0271
    110  CG        38.2340   35.9540   39.9240 C.3    95  LYS95       0.0035
    111  CD        37.1900   36.1790   41.0630 C.3    95  LYS95       0.0206
    112  CE        36.0170   37.0320   40.5620 C.3    95  LYS95       0.1093
    113  NZ        35.4620   36.4780   39.2970 N.3    95  LYS95      -0.1314
    114  N         44.1980   31.2580   44.9490 N.3   136  ARG136     -0.1231
    115  CA        43.0050   31.9670   45.5050 C.3   136  ARG136      0.1694
    116  C         43.2580   32.7470   46.8060 C.2   136  ARG136      0.2592
    117  O         42.4400   33.5360   47.2040 O.2   136  ARG136     -0.2718
    118  CB        41.8420   30.9800   45.7610 C.3   136  ARG136      0.0321
    119  CG        42.1530   29.8610   46.7610 C.3   136  ARG136      0.0489
    120  CD        40.9720   29.0090   47.1480 C.3   136  ARG136      0.2205
    121  NE        41.1240   28.5390   48.5290 N.pl3 136  ARG136     -0.0865
    122  CZ        41.9150   27.5240   48.9250 C.cat 136  ARG136      0.5346
    123  NH1       42.6320   26.7980   48.0560 N.pl3 136  ARG136      0.1354
    124  NH2       41.9700   27.2210   50.2220 N.pl3 136  ARG136      0.1354
    125  N         44.3850   32.4940   47.4700 N.am  137  ASN137     -0.1974
    126  CA        44.7330   33.2070   48.6780 C.3   137  ASN137      0.1688
    127  C         45.8260   34.2260   48.4700 C.2   137  ASN137      0.2292
    128  O         46.4690   34.6510   49.4240 O.2   137  ASN137     -0.2864
    129  CB        45.1240   32.1940   49.7530 C.3   137  ASN137      0.1181
    130  CG        43.9260   31.3770   50.2150 C.2   137  ASN137      0.2629
    131  OD1       42.7840   31.8600   50.1800 O.2   137  ASN137     -0.2716
    132  ND2       44.1770   30.1590   50.6460 N.am  137  ASN137     -0.0877
    133  N         46.3260   37.9860   46.6090 N.3   139  LEU139     -0.1245
    134  CA        45.6050   39.0910   46.0590 C.3   139  LEU139      0.1561
    135  C         46.5590   39.8930   45.2350 C.2   139  LEU139      0.2260
    136  O         47.7800   39.8820   45.4830 O.2   139  LEU139     -0.2867
    137  CB        45.0630   39.9800   47.1760 C.3   139  LEU139      0.0270
    138  CG        43.6430   39.7620   47.7220 C.3   139  LEU139      0.0019
    139  CD1       43.0590   38.4210   47.3960 C.3   139  LEU139      0.0001
    140  CD2       43.6910   39.9360   49.2150 C.3   139  LEU139      0.0001
    141  N         47.7770   36.4280   51.3530 N.3   149  SER149     -0.1202
    142  CA        46.6160   36.7900   52.1210 C.3   149  SER149      0.2020
    143  C         46.1360   35.5320   52.8080 C.2   149  SER149      0.2618
    144  O         46.8130   34.5240   52.7390 O.2   149  SER149     -0.2717
    145  CB        45.5280   37.2790   51.1740 C.3   149  SER149      0.2103
    146  OG        44.7790   38.2810   51.8300 O.3   149  SER149     -0.2182
    147  N         44.9760   35.5880   53.4480 N.am  150  ASP150     -0.1973
    148  CA        44.3920   34.4340   54.1260 C.3   150  ASP150      0.1709
    149  C         45.2600   33.7800   55.2190 C.2   150  ASP150      0.2293
    150  O         45.8210   32.6980   55.0600 O.2   150  ASP150     -0.2864
    151  CB        43.9540   33.4010   53.1150 C.3   150  ASP150      0.1436
    152  CG        43.4250   32.1560   53.7710 C.2   150  ASP150      0.3671
    153  OD1       43.8710   31.0330   53.3900 O.co2 150  ASP150     -0.2456
    154  OD2       42.5960   32.2150   54.6840 O.co2 150  ASP150     -0.2456
@<TRIPOS>BOND
     1   108   107    2
     2   107   106    1
     3   106   105    1
     4   106   109    1
     5   113   112    1
     6   110   109    1
     7   110   111    1
     8   112   111    1
     9   103   102    2
    10   102   101    1
    11    96    97    1
    12    97    98    1
    13    99    98    2
    14    98   100   am
    15   100   101    1
    16   101   104    1
    17    87    86    1
    18    91    90    2
    19    90    89    1
    20   114   115    1
    21    84    86   ar
    22    84    82   ar
    23   135   136    2
    24   135   134    1
    25    86    85   ar
    26   115   118    1
    27   115   116    1
    28   118   119    1
    29    82    81   ar
    30   134   133    1
    31   134   137    1
    32    89    92    1
    33    89    88    1
    34     4     3    2
    35     7     5    1
    36     5     2    1
    37     5     6    1
    38    85    83   ar
    39    92    93    1
    40    95    94    1
    41     2     3    1
    42     2     1    1
    43   119   120    1
    44   116   117    2
    45   116   125   am
    46     3     9   am
    47   120   121    1
    48   137   138    1
    49    88    78   am
    50    81    83   ar
    51    81    80    1
    52    79    78    2
    53   139   138    1
    54   125   126    1
    55     6     8    1
    56    94    93    1
    57   138   140    1
    58    78    77    1
    59     9    10    1
    60   123   122    1
    61    10    11    1
    62    80    77    1
    63   127   126    1
    64   127   128    2
    65   121   122    2
    66   126   129    1
    67    77    76    1
    68   122   124    1
    69    11    13   am
    70    11    12    2
    71   129   130    1
    72    13    14    1
    73    76    69   am
    74    75    73   ar
    75   131   130    2
    76   130   132   am
    77    34    33    2
    78    17    14    1
    79    59    57    1
    80    70    69    2
    81    69    68    1
    82    73    74   ar
    83    73    72    1
    84    16    15    2
    85    14    15    1
    86   145   146    1
    87   145   142    1
    88    57    56    1
    89   141   142    1
    90    42    39    1
    91    72    71    1
    92    71    68    1
    93    33    32    1
    94    15    18   am
    95    36    35    1
    96    38    39    1
    97    39    40    1
    98    68    67    1
    99    35    32    1
   100    35    37    1
   101   142   143    1
   102    32    31    1
   103    52    53    1
   104   144   143    2
   105    56    53    1
   106    56    58    1
   107   143   147   am
   108    53    54    1
   109    18    19    1
   110    67    62   am
   111   151   152    1
   112   151   148    1
   113    63    62    2
   114    40    41    2
   115   153   152   ar
   116   147   148    1
   117    65    64    1
   118    62    61    1
   119    19    20    1
   120    51    50    1
   121   152   154   ar
   122   148   149    1
   123    54    55    2
   124    64    61    1
   125    64    66    1
   126    50    49    1
   127    20    21    2
   128    20    22   am
   129    61    60    1
   130   150   149    2
   131    22    23    1
   132    48    49    1
   133    48    47    1
   134    43    44    1
   135    44    47    1
   136    44    45    1
   137    23    26    1
   138    23    24    1
   139    26    27    1
   140    45    46    2
   141    24    25    2
   142    27    28    1
   143    29    28   ar
   144    28    30   ar
