@<TRIPOS>MOLECULE
tmp/1mqgB00.pdb
 161 155 0 0 0
SMALL
GASTEIGER

@<TRIPOS>ATOM
      1  N         26.8060   21.5830   61.7860 N.3    11  GLU11      -0.1245
      2  CA        27.7760   21.6930   60.7040 C.3    11  GLU11       0.1567
      3  C         28.4740   23.0330   60.8760 C.2    11  GLU11       0.2260
      4  O         27.8290   24.0810   60.8390 O.2    11  GLU11      -0.2867
      5  CB        27.0700   21.6400   59.3440 C.3    11  GLU11       0.0388
      6  CG        27.9930   21.7090   58.1280 C.3    11  GLU11       0.1160
      7  CD        28.5650   20.3540   57.7260 C.2    11  GLU11       0.3649
      8  OE1       29.3030   19.7430   58.5320 O.co2  11  GLU11      -0.2457
      9  OE2       28.2740   19.9020   56.5980 O.co2  11  GLU11      -0.2457
     10  N         28.0270   26.8810   60.9360 N.3    14  TYR14      -0.1241
     11  CA        26.6070   27.1750   61.0390 C.3    14  TYR14       0.1605
     12  C         26.0680   26.9440   62.4420 C.2    14  TYR14       0.2264
     13  O         25.5390   27.8570   63.0730 O.2    14  TYR14      -0.2867
     14  CB        25.8470   26.3230   60.0300 C.3    14  TYR14       0.0534
     15  CG        26.2980   26.5670   58.6110 C.ar   14  TYR14      -0.0201
     16  CD1       25.9670   27.7490   57.9540 C.ar   14  TYR14      -0.0009
     17  CD2       27.0830   25.6330   57.9350 C.ar   14  TYR14      -0.0009
     18  CE1       26.4050   27.9970   56.6600 C.ar   14  TYR14       0.0417
     19  CE2       27.5260   25.8710   56.6410 C.ar   14  TYR14       0.0417
     20  CZ        27.1820   27.0590   56.0120 C.ar   14  TYR14       0.1957
     21  OH        27.6230   27.3200   54.7370 O.3    14  TYR14      -0.2866
     22  N         20.0820   16.1040   55.7300 N.3    59  TYR59      -0.1241
     23  CA        19.5130   17.3570   55.2520 C.3    59  TYR59       0.1605
     24  C         18.0920   17.1590   54.7550 C.2    59  TYR59       0.2264
     25  O         17.1680   17.8030   55.2410 O.2    59  TYR59      -0.2867
     26  CB        20.3780   17.9610   54.1470 C.3    59  TYR59       0.0534
     27  CG        21.6410   18.5910   54.6790 C.ar   59  TYR59      -0.0201
     28  CD1       22.7690   17.8170   54.9640 C.ar   59  TYR59      -0.0009
     29  CD2       21.7000   19.9630   54.9280 C.ar   59  TYR59      -0.0009
     30  CE1       23.9220   18.3950   55.4780 C.ar   59  TYR59       0.0417
     31  CE2       22.8440   20.5480   55.4440 C.ar   59  TYR59       0.0417
     32  CZ        23.9520   19.7600   55.7130 C.ar   59  TYR59       0.1957
     33  OH        25.0950   20.3480   56.1950 O.3    59  TYR59      -0.2866
     34  N         22.1070   25.2810   56.6930 N.3    87  PRO87      -0.2102
     35  CA        22.6070   25.3630   55.3160 C.3    87  PRO87       0.1504
     36  C         21.8550   24.3900   54.4210 C.2    87  PRO87       0.2576
     37  O         22.4400   23.4670   53.8540 O.2    87  PRO87      -0.2718
     38  CB        24.0840   25.0040   55.4620 C.3    87  PRO87       0.0282
     39  CG        24.0790   24.0580   56.6310 C.3    87  PRO87       0.0208
     40  CD        23.1460   24.7490   57.5950 C.3    87  PRO87       0.0893
     41  N         20.5480   24.6030   54.3110 N.am   88  LEU88      -0.1966
     42  CA        19.6790   23.7610   53.4980 C.3    88  LEU88       0.1728
     43  C         19.5220   24.3940   52.1160 C.2    88  LEU88       0.2616
     44  O         19.0820   25.5400   51.9890 O.2    88  LEU88      -0.2715
     45  CB        18.3140   23.6260   54.1780 C.3    88  LEU88       0.0311
     46  CG        17.2670   22.6890   53.5720 C.3    88  LEU88       0.0022
     47  CD1       17.7330   21.2510   53.6790 C.3    88  LEU88       0.0001
     48  CD2       15.9400   22.8600   54.3120 C.3    88  LEU88       0.0001
     49  N         19.8810   23.6400   51.0810 N.am   89  THR89      -0.1951
     50  CA        19.7960   24.1250   49.7070 C.3    89  THR89       0.1897
     51  C         18.3800   24.1320   49.1540 C.2    89  THR89       0.2313
     52  O         17.6320   23.1840   49.3330 O.2    89  THR89      -0.2863
     53  CB        20.6570   23.2670   48.7710 C.3    89  THR89       0.1794
     54  OG1       22.0050   23.2460   49.2540 O.3    89  THR89      -0.2208
     55  CG2       20.6290   23.8300   47.3550 C.3    89  THR89       0.0378
     56  N         12.3260   19.5220   46.7840 N.3    94  ARG94      -0.1245
     57  CA        12.0070   19.9780   48.1360 C.3    94  ARG94       0.1563
     58  C         10.9480   21.0690   48.1140 C.2    94  ARG94       0.2260
     59  O         10.0120   21.0440   48.9040 O.2    94  ARG94      -0.2867
     60  CB        13.2620   20.5050   48.8290 C.3    94  ARG94       0.0307
     61  CG        14.2710   19.4300   49.1730 C.3    94  ARG94       0.0489
     62  CD        15.5160   20.0440   49.7790 C.3    94  ARG94       0.2205
     63  NE        16.5030   19.0360   50.1420 N.pl3  94  ARG94      -0.0865
     64  CZ        17.7640   19.3170   50.4470 C.cat  94  ARG94       0.5346
     65  NH1       18.1830   20.5780   50.4280 N.pl3  94  ARG94       0.1354
     66  NH2       18.6020   18.3410   50.7660 N.pl3  94  ARG94       0.1354
     67  N         29.6220   14.2280   48.8400 N.3   136  LEU136     -0.1245
     68  CA        29.0040   13.7200   50.0590 C.3   136  LEU136      0.1561
     69  C         28.0790   12.6110   49.5410 C.2   136  LEU136      0.2260
     70  O         27.4660   12.7630   48.4780 O.2   136  LEU136     -0.2867
     71  CB        28.1910   14.8430   50.7030 C.3   136  LEU136      0.0270
     72  CG        28.0580   14.9690   52.2200 C.3   136  LEU136      0.0019
     73  CD1       29.4350   14.9640   52.8780 C.3   136  LEU136      0.0001
     74  CD2       27.3240   16.2650   52.5370 C.3   136  LEU136      0.0001
     75  N         25.2880   11.9390   50.0790 N.3   138  SER138     -0.1202
     76  CA        23.8910   12.3620   50.1420 C.3   138  SER138      0.2020
     77  C         23.8110   13.8860   50.1460 C.2   138  SER138      0.2619
     78  O         24.7810   14.5590   50.4890 O.2   138  SER138     -0.2717
     79  CB        23.2230   11.8130   51.4020 C.3   138  SER138      0.2103
     80  OG        21.8570   12.1920   51.4550 O.3   138  SER138     -0.2182
     81  N         22.6620   14.4330   49.7600 N.am  139  GLY139     -0.1942
     82  CA        22.5170   15.8810   49.7390 C.3   139  GLY139      0.2014
     83  C         22.3280   16.4380   48.3410 C.2   139  GLY139      0.2640
     84  O         22.3850   15.6990   47.3610 O.2   139  GLY139     -0.2714
     85  N         22.1130   17.7460   48.2430 N.am  140  SER140     -0.1935
     86  CA        21.8980   18.3880   46.9510 C.3   140  SER140      0.2055
     87  C         23.1030   18.3280   46.0020 C.2   140  SER140      0.2643
     88  O         22.9330   18.3450   44.7830 O.2   140  SER140     -0.2714
     89  CB        21.4850   19.8460   47.1560 C.3   140  SER140      0.2130
     90  OG        22.5280   20.5870   47.7620 O.3   140  SER140     -0.2179
     91  N         24.3140   18.2670   46.5490 N.am  141  THR141     -0.1950
     92  CA        25.5090   18.2000   45.7060 C.3   141  THR141      0.1897
     93  C         25.5450   16.9050   44.8830 C.2   141  THR141      0.2313
     94  O         25.8160   16.9350   43.6870 O.2   141  THR141     -0.2863
     95  CB        26.7980   18.3000   46.5440 C.3   141  THR141      0.1794
     96  OG1       26.8520   19.5820   47.1810 O.3   141  THR141     -0.2208
     97  CG2       28.0270   18.1350   45.6570 C.3   141  THR141      0.0378
     98  N         31.5280   15.8660   55.7470 N.3   172  THR172     -0.1218
     99  CA        32.4440   16.8620   55.2030 C.3   172  THR172      0.1862
    100  C         33.8390   16.5330   55.7240 C.2   172  THR172      0.2287
    101  O         34.8250   16.5650   54.9810 O.2   172  THR172     -0.2866
    102  CB        32.0750   18.2870   55.6640 C.3   172  THR172      0.1770
    103  OG1       30.7980   18.6510   55.1290 O.3   172  THR172     -0.2211
    104  CG2       33.1130   19.2870   55.1870 C.3   172  THR172      0.0375
    105  N         37.8220   16.8530   46.3020 N.3   188  TYR188     -0.1227
    106  CA        36.4910   16.8080   46.8960 C.3   188  TYR188      0.1736
    107  C         35.5870   17.9020   46.3250 C.2   188  TYR188      0.2595
    108  O         35.9820   19.0770   46.2190 O.2   188  TYR188     -0.2718
    109  CB        36.6060   16.9300   48.4210 C.3   188  TYR188      0.0548
    110  CG        35.2980   16.7960   49.1870 C.ar  188  TYR188     -0.0200
    111  CD1       34.3910   15.7770   48.8920 C.ar  188  TYR188     -0.0009
    112  CD2       34.9770   17.6830   50.2210 C.ar  188  TYR188     -0.0009
    113  CE1       33.1960   15.6420   49.6040 C.ar  188  TYR188      0.0417
    114  CE2       33.7800   17.5560   50.9410 C.ar  188  TYR188      0.0417
    115  CZ        32.8970   16.5320   50.6240 C.ar  188  TYR188      0.1957
    116  OH        31.7110   16.3960   51.3180 O.3   188  TYR188     -0.2866
    117  N         34.3780   17.4940   45.9450 N.am  189  LEU189     -0.1966
    118  CA        33.3720   18.3910   45.3750 C.3   189  LEU189      0.1728
    119  C         32.3760   18.7430   46.4630 C.2   189  LEU189      0.2616
    120  O         31.6450   17.8780   46.9400 O.2   189  LEU189     -0.2715
    121  CB        32.6460   17.6960   44.2220 C.3   189  LEU189      0.0311
    122  CG        33.5210   17.2760   43.0400 C.3   189  LEU189      0.0022
    123  CD1       32.8280   16.1680   42.2530 C.3   189  LEU189      0.0001
    124  CD2       33.8020   18.4880   42.1590 C.3   189  LEU189      0.0001
    125  N         32.3440   20.0090   46.8600 N.am  190  LEU190     -0.1963
    126  CA        31.4380   20.4310   47.9220 C.3   190  LEU190      0.1728
    127  C         30.9720   21.8530   47.7000 C.2   190  LEU190      0.2616
    128  O         31.5000   22.5640   46.8480 O.2   190  LEU190     -0.2715
    129  CB        32.1360   20.3430   49.2860 C.3   190  LEU190      0.0311
    130  CG        33.1460   21.4630   49.5970 C.3   190  LEU190      0.0022
    131  CD1       33.5730   21.3880   51.0580 C.3   190  LEU190      0.0001
    132  CD2       34.3580   21.3610   48.6590 C.3   190  LEU190      0.0001
    133  N         29.9810   22.2710   48.4780 N.am  191  GLU191     -0.1977
    134  CA        29.4520   23.6200   48.3540 C.3   191  GLU191      0.1602
    135  C         30.5210   24.6470   48.7110 C.2   191  GLU191      0.2287
    136  O         31.2250   24.5190   49.7190 O.2   191  GLU191     -0.2864
    137  CB        28.1980   23.7590   49.2190 C.3   191  GLU191      0.0415
    138  CG        27.1290   22.7530   48.7810 C.3   191  GLU191      0.1163
    139  CD        25.8380   22.8430   49.5610 C.2   191  GLU191      0.3649
    140  OE1       25.8940   23.0550   50.7830 O.co2 191  GLU191     -0.2457
    141  OE2       24.7620   22.6870   48.9480 O.co2 191  GLU191     -0.2457
    142  N         31.3700   25.9460   52.3570 N.3   194  MET194     -0.1245
    143  CA        32.1400   25.0530   53.2100 C.3   194  MET194      0.1570
    144  C         33.5930   25.0360   52.7400 C.2   194  MET194      0.2261
    145  O         34.5070   25.0220   53.5580 O.2   194  MET194     -0.2867
    146  CB        31.5440   23.6380   53.1730 C.3   194  MET194      0.0387
    147  CG        32.2280   22.6310   54.0990 C.3   194  MET194      0.0595
    148  SD        32.3330   23.1810   55.8340 S.3   194  MET194     -0.1393
    149  CE        30.6190   23.0600   56.3270 C.3   194  MET194      0.0692
    150  N         20.9550   28.8860   49.9980 N.3   218  TYR218     -0.1241
    151  CA        20.4120   28.2490   51.1840 C.3   218  TYR218      0.1605
    152  C         19.1930   29.0850   51.5430 C.2   218  TYR218      0.2264
    153  O         19.2110   30.3040   51.3860 O.2   218  TYR218     -0.2867
    154  CB        21.3950   28.3050   52.3600 C.3   218  TYR218      0.0534
    155  CG        22.6740   27.5230   52.1870 C.ar  218  TYR218     -0.0201
    156  CD1       22.6940   26.3240   51.4800 C.ar  218  TYR218     -0.0009
    157  CD2       23.8540   27.9480   52.7940 C.ar  218  TYR218     -0.0009
    158  CE1       23.8470   25.5670   51.3860 C.ar  218  TYR218      0.0417
    159  CE2       25.0190   27.1920   52.7070 C.ar  218  TYR218      0.0417
    160  CZ        25.0040   26.0040   52.0050 C.ar  218  TYR218      0.1957
    161  OH        26.1360   25.2330   51.9500 O.3   218  TYR218     -0.2866
@<TRIPOS>BOND
     1   124   122    1
     2   123   122    1
     3   122   121    1
     4    94    93    2
     5   121   118    1
     6    88    87    2
     7    93    92    1
     8   118   117    1
     9   118   119    1
    10    97    95    1
    11    92    95    1
    12    92    91    1
    13   117   107   am
    14    87    91   am
    15    87    86    1
    16   108   107    2
    17   105   106    1
    18   107   106    1
    19   119   125   am
    20   119   120    2
    21    95    96    1
    22    56    57    1
    23   128   127    2
    24   125   126    1
    25   106   109    1
    26    86    89    1
    27    86    85    1
    28    89    90    1
    29    55    53    1
    30    84    83    2
    31   127   126    1
    32   127   133   am
    33   126   129    1
    34    58    57    1
    35    58    59    2
    36    57    60    1
    37    85    83   am
    38    83    82    1
    39   134   133    1
    40   134   135    1
    41   134   137    1
    42   109   110    1
    43    70    69    2
    44   132   130    1
    45   135   136    2
    46    53    54    1
    47    53    50    1
    48   138   137    1
    49   138   139    1
    50    60    61    1
    51    67    68    1
    52   111   110   ar
    53   111   113   ar
    54   141   139   ar
    55    51    52    2
    56    51    50    1
    57    61    62    1
    58   110   112   ar
    59   129   130    1
    60    69    68    1
    61   139   140   ar
    62   130   131    1
    63   113   115   ar
    64    50    49    1
    65    82    81    1
    66    81    77   am
    67    62    63    1
    68   150   151    1
    69    68    71    1
    70    75    76    1
    71    76    77    1
    72    76    79    1
    73    63    64    2
    74    77    78    2
    75   112   114   ar
    76    65    64    1
    77    64    66    1
    78   115   114   ar
    79   115   116    1
    80    71    72    1
    81    49    43   am
    82   151   152    1
    83   151   154    1
    84   153   152    2
    85   158   156   ar
    86   158   160   ar
    87    79    80    1
    88   156   155   ar
    89   161   160    1
    90    44    43    2
    91   160   159   ar
    92    43    42    1
    93   155   154    1
    94   155   157   ar
    95    72    74    1
    96    72    73    1
    97   142   143    1
    98   159   157   ar
    99   144   143    1
   100   144   145    2
   101   146   143    1
   102   146   147    1
   103    42    45    1
   104    42    41    1
   105    46    47    1
   106    46    45    1
   107    46    48    1
   108    37    36    2
   109   147   148    1
   110    26    27    1
   111    26    23    1
   112    41    36   am
   113    36    35    1
   114    27    29   ar
   115    27    28   ar
   116    21    20    1
   117    24    25    2
   118    24    23    1
   119    29    31   ar
   120    28    30   ar
   121   101   100    2
   122   103   102    1
   123   104   102    1
   124    99   102    1
   125    99   100    1
   126    99    98    1
   127    23    22    1
   128    35    38    1
   129    35    34    1
   130    31    32   ar
   131    38    39    1
   132    30    32   ar
   133    32    33    1
   134   148   149    1
   135    20    19   ar
   136    20    18   ar
   137     9     7   ar
   138    39    40    1
   139    19    17   ar
   140    18    16   ar
   141    34    40    1
   142     7     6    1
   143     7     8   ar
   144    17    15   ar
   145    16    15   ar
   146     6     5    1
   147    15    14    1
   148     5     2    1
   149    14    11    1
   150     2     3    1
   151     2     1    1
   152     4     3    2
   153    10    11    1
   154    11    12    1
   155    12    13    2
