@<TRIPOS>MOLECULE
tmp/1mqmE05.pdb
 139 136 0 0 0
SMALL
GASTEIGER

@<TRIPOS>ATOM
      1  N         92.3760   36.7710   87.7830 N.3    90  TYR90      -0.1241
      2  CA        91.4160   36.9940   86.6950 C.3    90  TYR90       0.1605
      3  C         89.9760   37.1950   87.1620 C.2    90  TYR90       0.2264
      4  O         89.4820   36.4000   87.9580 O.2    90  TYR90      -0.2867
      5  CB        91.4570   35.8250   85.7190 C.3    90  TYR90       0.0534
      6  CG        90.8510   36.1700   84.3860 C.ar   90  TYR90      -0.0201
      7  CD1       91.6560   36.5650   83.3150 C.ar   90  TYR90      -0.0009
      8  CD2       89.4680   36.1150   84.1900 C.ar   90  TYR90      -0.0009
      9  CE1       91.0980   36.8910   82.0760 C.ar   90  TYR90       0.0417
     10  CE2       88.9030   36.4420   82.9600 C.ar   90  TYR90       0.0417
     11  CZ        89.7210   36.8280   81.9130 C.ar   90  TYR90       0.1957
     12  OH        89.1410   37.1780   80.7220 O.3    90  TYR90      -0.2866
     13  N         96.5600   27.9000   80.2930 N.3   126  GLY126     -0.1210
     14  CA        96.5110   29.2530   79.7610 C.3   126  GLY126      0.1956
     15  C         96.5240   30.2920   80.8680 C.2   126  GLY126      0.2612
     16  O         96.0790   30.0110   81.9790 O.2   126  GLY126     -0.2717
     17  N         97.0060   31.4990   80.5810 N.am  127  GLY127     -0.1942
     18  CA        97.0550   32.4980   81.6320 C.3   127  GLY127      0.2014
     19  C         96.6800   33.9160   81.2610 C.2   127  GLY127      0.2640
     20  O         96.2740   34.1890   80.1300 O.2   127  GLY127     -0.2714
     21  N         96.8290   34.8190   82.2290 N.am  128  SER128     -0.1935
     22  CA        96.5020   36.2310   82.0300 C.3   128  SER128      0.2055
     23  C         97.4570   37.2260   82.7070 C.2   128  SER128      0.2643
     24  O         98.1840   36.8920   83.6600 O.2   128  SER128     -0.2714
     25  CB        95.0690   36.5100   82.5130 C.3   128  SER128      0.2130
     26  OG        94.7040   37.8620   82.2710 O.3   128  SER128     -0.2179
     27  N         97.4490   38.4540   82.1920 N.am  129  SER129     -0.1949
     28  CA        98.2680   39.5200   82.7590 C.3   129  SER129      0.1924
     29  C         97.6180   39.8640   84.0880 C.2   129  SER129      0.2314
     30  O         98.2410   40.4920   84.9610 O.2   129  SER129     -0.2863
     31  CB        98.2560   40.7510   81.8600 C.3   129  SER129      0.2116
     32  OG        96.9260   41.1640   81.6080 O.3   129  SER129     -0.2180
     33  N        102.5290   35.8240   83.1430 N.3   137  ASN137     -0.1240
     34  CA       101.0860   35.5950   83.1990 C.3   137  ASN137      0.1653
     35  C        100.7880   34.2550   83.8920 C.2   137  ASN137      0.2266
     36  O        101.6830   33.4160   84.0700 O.2   137  ASN137     -0.2867
     37  CB       100.4910   35.6210   81.7910 C.3   137  ASN137      0.1155
     38  CG       100.6010   36.9900   81.1450 C.2   137  ASN137      0.2627
     39  OD1      101.1100   37.9270   81.7610 O.2   137  ASN137     -0.2716
     40  ND2      100.1220   37.1130   79.9030 N.am  137  ASN137     -0.0877
     41  N         92.8950   26.7300   82.0390 N.3   145  TRP145     -0.1241
     42  CA        92.2950   27.4680   80.9250 C.3   145  TRP145      0.1605
     43  C         92.5980   26.7190   79.6240 C.2   145  TRP145      0.2264
     44  O         93.7680   26.5320   79.2810 O.2   145  TRP145     -0.2867
     45  CB        92.8620   28.8940   80.8330 C.3   145  TRP145      0.0550
     46  CG        91.9890   29.8080   80.0430 C.ar  145  TRP145      0.0003
     47  CD1       91.1340   29.4520   79.0390 C.ar  145  TRP145      0.0946
     48  CD2       91.8690   31.2310   80.1840 C.ar  145  TRP145      0.0152
     49  NE1       90.4840   30.5610   78.5490 N.ar  145  TRP145     -0.2442
     50  CE2       90.9200   31.6670   79.2320 C.ar  145  TRP145      0.0810
     51  CE3       92.4720   32.1800   81.0180 C.ar  145  TRP145      0.0012
     52  CZ2       90.5610   33.0170   79.0890 C.ar  145  TRP145      0.0191
     53  CZ3       92.1130   33.5290   80.8720 C.ar  145  TRP145      0.0001
     54  CH2       91.1700   33.9280   79.9160 C.ar  145  TRP145      0.0015
     55  N         92.3830   26.2740   75.3970 N.3   147  THR147     -0.1218
     56  CA        92.3190   27.0560   74.1670 C.3   147  THR147      0.1862
     57  C         92.5470   26.1890   72.9440 C.2   147  THR147      0.2287
     58  O         93.0880   25.0840   73.0350 O.2   147  THR147     -0.2866
     59  CB        93.4030   28.1370   74.1570 C.3   147  THR147      0.1770
     60  OG1       94.4960   27.6980   74.9820 O.3   147  THR147     -0.2211
     61  CG2       92.8590   29.4760   74.6490 C.3   147  THR147      0.0375
     62  N         84.2880   30.4780   80.4160 N.3   175  HIS175     -0.1241
     63  CA        84.7940   31.7970   80.0980 C.3   175  HIS175      0.1621
     64  C         83.8780   32.6260   79.2390 C.2   175  HIS175      0.2264
     65  O         83.3780   32.1450   78.2160 O.2   175  HIS175     -0.2867
     66  CB        86.1280   31.6830   79.3880 C.3   175  HIS175      0.0745
     67  CG        86.6820   33.0170   78.9420 C.ar  175  HIS175      0.0817
     68  ND1       87.3680   33.1690   77.7660 N.ar  175  HIS175     -0.2268
     69  CD2       86.6720   34.2170   79.5510 C.ar  175  HIS175      0.1154
     70  CE1       87.7680   34.4270   77.6610 C.ar  175  HIS175      0.1986
     71  NE2       87.3630   35.0810   78.7270 N.ar  175  HIS175     -0.2212
     72  N         84.0070   35.6080   76.8900 N.3   177  PRO177     -0.2102
     73  CA        84.7860   36.5860   76.1110 C.3   177  PRO177      0.1504
     74  C         84.2090   37.9820   75.9760 C.2   177  PRO177      0.2576
     75  O         83.0000   38.1660   75.9710 O.2   177  PRO177     -0.2718
     76  CB        84.9270   35.8790   74.7640 C.3   177  PRO177      0.0282
     77  CG        85.1590   34.5100   75.1730 C.3   177  PRO177      0.0208
     78  CD        84.0340   34.3030   76.2070 C.3   177  PRO177      0.0893
     79  N         85.0850   38.9800   75.8700 N.am  178  SER178     -0.1953
     80  CA        84.6460   40.3680   75.7280 C.3   178  SER178      0.1924
     81  C         83.9860   40.6690   74.3840 C.2   178  SER178      0.2314
     82  O         83.1130   41.5320   74.3040 O.2   178  SER178     -0.2863
     83  CB        85.8280   41.3210   75.8890 C.3   178  SER178      0.2116
     84  OG        86.8140   41.0490   74.9080 O.3   178  SER178     -0.2180
     85  N         87.1220   37.7310   69.9220 N.3   182  GLU182     -0.1245
     86  CA        87.8010   37.0020   70.9940 C.3   182  GLU182      0.1567
     87  C         87.3170   35.5480   71.0580 C.2   182  GLU182      0.2260
     88  O         88.1060   34.6130   71.1710 O.2   182  GLU182     -0.2867
     89  CB        87.5500   37.6920   72.3450 C.3   182  GLU182      0.0388
     90  CG        88.8020   37.8560   73.1980 C.3   182  GLU182      0.1160
     91  CD        88.5110   38.4620   74.5610 C.2   182  GLU182      0.3649
     92  OE1       87.7660   37.8370   75.3450 O.co2 182  GLU182     -0.2457
     93  OE2       89.0240   39.5650   74.8510 O.co2 182  GLU182     -0.2457
     94  N         89.8660   32.5230   70.1510 N.3   186  LEU186     -0.1245
     95  CA        90.3240   31.6100   71.1970 C.3   186  LEU186      0.1561
     96  C         89.7460   30.2090   71.0840 C.2   186  LEU186      0.2260
     97  O         90.4510   29.2090   71.2890 O.2   186  LEU186     -0.2867
     98  CB        89.9350   32.1470   72.5730 C.3   186  LEU186      0.0270
     99  CG        90.9560   32.8820   73.4350 C.3   186  LEU186      0.0019
    100  CD1       91.7380   33.8670   72.5870 C.3   186  LEU186      0.0001
    101  CD2       90.2290   33.5910   74.5800 C.3   186  LEU186      0.0001
    102  N         86.6580   46.9060   82.9920 N.3   214  TRP214     -0.1241
    103  CA        88.0020   46.3310   83.0880 C.3   214  TRP214      0.1605
    104  C         88.4500   46.0400   84.5260 C.2   214  TRP214      0.2264
    105  O         88.3480   46.9080   85.3870 O.2   214  TRP214     -0.2867
    106  CB        89.0130   47.2950   82.4780 C.3   214  TRP214      0.0550
    107  CG        89.1900   47.2660   81.0090 C.ar  214  TRP214      0.0003
    108  CD1       88.2430   47.0680   80.0490 C.ar  214  TRP214      0.0946
    109  CD2       90.4110   47.5280   80.3300 C.ar  214  TRP214      0.0152
    110  NE1       88.8080   47.2040   78.7970 N.ar  214  TRP214     -0.2442
    111  CE2       90.1390   47.4920   78.9460 C.ar  214  TRP214      0.0810
    112  CE3       91.7170   47.8080   80.7640 C.ar  214  TRP214      0.0012
    113  CZ2       91.1380   47.7220   77.9890 C.ar  214  TRP214      0.0191
    114  CZ3       92.7050   48.0330   79.8200 C.ar  214  TRP214      0.0001
    115  CH2       92.4110   47.9830   78.4440 C.ar  214  TRP214      0.0015
    116  N         92.6200   44.9930   83.9530 N.3   217  GLY217     -0.1210
    117  CA        92.6880   45.0720   82.5100 C.3   217  GLY217      0.1956
    118  C         91.7970   44.1730   81.6840 C.2   217  GLY217      0.2612
    119  O         91.8640   44.2460   80.4560 O.2   217  GLY217     -0.2717
    120  N         90.9480   43.3640   82.3140 N.am  218  GLN218     -0.1966
    121  CA        90.1080   42.4370   81.5440 C.3   218  GLN218      0.1718
    122  C         88.6070   42.6210   81.5370 C.2   218  GLN218      0.2458
    123  O         87.9660   42.5170   82.5860 O.2   218  GLN218     -0.2730
    124  CB        90.3930   41.0050   81.9720 C.3   218  GLN218      0.0407
    125  CG        91.8350   40.5800   81.7120 C.3   218  GLN218      0.0908
    126  CD        92.1490   40.6180   80.2350 C.2   218  GLN218      0.2608
    127  OE1       91.3960   40.0600   79.4390 O.2   218  GLN218     -0.2717
    128  NE2       93.2470   41.2770   79.8440 N.am  218  GLN218     -0.0878
    129  N         88.0380   42.8770   80.3360 N.am  219  PRO219     -0.2716
    130  CA        86.5720   43.0340   80.2010 C.3   219  PRO219      0.1536
    131  C         85.8940   41.6910   80.4170 C.2   219  PRO219      0.2599
    132  O         84.7810   41.6170   80.9540 O.2   219  PRO219     -0.2715
    133  CB        86.4120   43.5480   78.7600 C.3   219  PRO219      0.0310
    134  CG        87.6390   44.2950   78.5100 C.3   219  PRO219      0.0237
    135  CD        88.7280   43.4590   79.1790 C.3   219  PRO219      0.0939
    136  N         86.5830   40.6150   80.0400 N.am  220  GLY220     -0.1955
    137  CA        85.9920   39.3030   80.1920 C.3   220  GLY220      0.1869
    138  C         85.8740   38.8330   81.6240 C.2   220  GLY220      0.2309
    139  O         86.6480   39.2460   82.4750 O.2   220  GLY220     -0.2863
@<TRIPOS>BOND
     1    85    86    1
     2    94    95    1
     3    86    87    1
     4    86    89    1
     5    87    88    2
     6    96    95    1
     7    96    97    2
     8    95    98    1
     9    89    90    1
    10    98    99    1
    11   100    99    1
    12    57    58    2
    13    57    56    1
    14    90    91    1
    15    99   101    1
    16    59    56    1
    17    59    61    1
    18    59    60    1
    19    56    55    1
    20    82    81    2
    21    81    80    1
    22    91    93   ar
    23    91    92   ar
    24    76    77    1
    25    76    73    1
    26    84    83    1
    27    77    78    1
    28    80    79    1
    29    80    83    1
    30    79    74   am
    31    75    74    2
    32    74    73    1
    33    73    72    1
    34    78    72    1
    35    70    68   ar
    36    70    71   ar
    37    68    67   ar
    38   113   115   ar
    39   113   111   ar
    40    65    64    2
    41   115   114   ar
    42   134   133    1
    43   134   135    1
    44    49    47   ar
    45    49    50   ar
    46    71    69   ar
    47   133   130    1
    48   110   111   ar
    49   110   108   ar
    50    67    66    1
    51    67    69   ar
    52   111   109   ar
    53    47    46   ar
    54    52    50   ar
    55    52    54   ar
    56   135   129    1
    57    50    48   ar
    58    64    63    1
    59    44    43    2
    60    66    63    1
    61   127   126    2
    62    43    42    1
    63    14    13    1
    64    14    15    1
    65   114   112   ar
    66   128   126   am
    67    40    38   am
    68    54    53   ar
    69   136   137    1
    70   136   131   am
    71    46    48   ar
    72    46    45    1
    73   108   107   ar
    74    63    62    1
    75    20    19    2
    76    48    51   ar
    77   137   138    1
    78   130   129    1
    79   130   131    1
    80   126   125    1
    81   109   112   ar
    82   109   107   ar
    83   129   122   am
    84   131   132    2
    85   119   118    2
    86    17    15   am
    87    17    18    1
    88    12    11    1
    89    45    42    1
    90    15    16    2
    91    53    51   ar
    92    42    41    1
    93   107   106    1
    94    38    39    2
    95    38    37    1
    96    19    18    1
    97    19    21   am
    98   122   121    1
    99   122   123    2
   100   121   124    1
   101   121   120    1
   102    32    31    1
   103   138   139    2
   104   118   120   am
   105   118   117    1
   106   125   124    1
   107    37    34    1
   108    31    28    1
   109    11     9   ar
   110    11    10   ar
   111    22    21    1
   112    22    25    1
   113    22    23    1
   114     9     7   ar
   115    27    23   am
   116    27    28    1
   117    26    25    1
   118   106   103    1
   119   117   116    1
   120    23    24    2
   121    28    29    1
   122    10     8   ar
   123   102   103    1
   124   103   104    1
   125    33    34    1
   126    34    35    1
   127     7     6   ar
   128    35    36    2
   129    29    30    2
   130     8     6   ar
   131     6     5    1
   132   104   105    2
   133     5     2    1
   134     2     3    1
   135     2     1    1
   136     3     4    2
