@<TRIPOS>MOLECULE
tmp/1mqmA03.pdb
 125 121 0 0 0
SMALL
GASTEIGER

@<TRIPOS>ATOM
      1  N         52.4700   47.4480   79.8420 N.3    90  TYR90      -0.1241
      2  CA        52.9400   46.2860   79.0630 C.3    90  TYR90       0.1605
      3  C         53.1790   45.0330   79.9050 C.2    90  TYR90       0.2264
      4  O         53.8100   45.1070   80.9580 O.2    90  TYR90      -0.2867
      5  CB        54.2440   46.6070   78.3400 C.3    90  TYR90       0.0534
      6  CG        54.5550   45.6430   77.2220 C.ar   90  TYR90      -0.0201
      7  CD1       54.0430   45.8490   75.9440 C.ar   90  TYR90      -0.0009
      8  CD2       55.3780   44.5360   77.4310 C.ar   90  TYR90      -0.0009
      9  CE1       54.3470   44.9870   74.8950 C.ar   90  TYR90       0.0417
     10  CE2       55.6900   43.6580   76.3820 C.ar   90  TYR90       0.0417
     11  CZ        55.1710   43.8960   75.1140 C.ar   90  TYR90       0.1957
     12  OH        55.4860   43.0800   74.0500 O.3    90  TYR90      -0.2866
     13  N         60.1270   53.4460   72.9620 N.3   126  GLY126     -0.1210
     14  CA        59.2160   52.5490   72.2780 C.3   126  GLY126      0.1956
     15  C         57.9640   52.4910   73.1220 C.2   126  GLY126      0.2612
     16  O         58.0290   52.7060   74.3270 O.2   126  GLY126     -0.2717
     17  N         56.8240   52.2040   72.5190 N.am  127  GLY127     -0.1942
     18  CA        55.6210   52.1650   73.3170 C.3   127  GLY127      0.2014
     19  C         54.6680   51.0830   72.8790 C.2   127  GLY127      0.2640
     20  O         54.9000   50.4130   71.8730 O.2   127  GLY127     -0.2714
     21  N         53.5870   50.9240   73.6370 N.am  128  SER128     -0.1935
     22  CA        52.5870   49.9150   73.3420 C.3   128  SER128      0.2055
     23  C         51.1680   50.3980   73.6360 C.2   128  SER128      0.2643
     24  O         50.9520   51.2700   74.4950 O.2   128  SER128     -0.2714
     25  CB        52.8660   48.6550   74.1640 C.3   128  SER128      0.2130
     26  OG        51.8650   47.6790   73.9430 O.3   128  SER128     -0.2179
     27  N         50.2060   49.8220   72.9160 N.am  129  SER129     -0.1949
     28  CA        48.8090   50.1680   73.1180 C.3   129  SER129      0.1924
     29  C         48.3910   49.5250   74.4320 C.2   129  SER129      0.2314
     30  O         47.4160   49.9280   75.0510 O.2   129  SER129     -0.2863
     31  CB        47.9360   49.6400   71.9750 C.3   129  SER129      0.2116
     32  OG        47.7530   48.2420   72.0650 O.3   129  SER129     -0.2180
     33  N         50.3700   55.5170   72.7440 N.3   137  ASN137     -0.1240
     34  CA        50.8870   54.2340   73.1990 C.3   137  ASN137      0.1653
     35  C         52.0690   54.5740   74.0890 C.2   137  ASN137      0.2266
     36  O         53.0210   55.2030   73.6430 O.2   137  ASN137     -0.2867
     37  CB        51.3700   53.3850   72.0260 C.3   137  ASN137      0.1155
     38  CG        50.2380   52.8770   71.1670 C.2   137  ASN137      0.2627
     39  OD1       49.1900   52.4910   71.6740 O.2   137  ASN137     -0.2716
     40  ND2       50.4510   52.8550   69.8560 N.am  137  ASN137     -0.0877
     41  N         62.2930   51.7440   75.8750 N.3   145  TRP145     -0.1241
     42  CA        62.2140   50.6580   74.9040 C.3   145  TRP145      0.1605
     43  C         63.0180   50.9960   73.6560 C.2   145  TRP145      0.2264
     44  O         62.6020   51.8400   72.8640 O.2   145  TRP145     -0.2867
     45  CB        60.7580   50.3860   74.4840 C.3   145  TRP145      0.0550
     46  CG        60.5820   49.0600   73.7850 C.ar  145  TRP145      0.0003
     47  CD1       61.5580   48.3280   73.1590 C.ar  145  TRP145      0.0946
     48  CD2       59.3750   48.2850   73.6740 C.ar  145  TRP145      0.0152
     49  NE1       61.0360   47.1480   72.6750 N.ar  145  TRP145     -0.2442
     50  CE2       59.7030   47.0950   72.9760 C.ar  145  TRP145      0.0810
     51  CE3       58.0560   48.4770   74.0980 C.ar  145  TRP145      0.0012
     52  CZ2       58.7620   46.1010   72.6940 C.ar  145  TRP145      0.0191
     53  CZ3       57.1110   47.4810   73.8160 C.ar  145  TRP145      0.0001
     54  CH2       57.4770   46.3060   73.1200 C.ar  145  TRP145      0.0015
     55  N         64.6650   50.2130   69.8780 N.3   147  THR147     -0.1218
     56  CA        64.3960   49.5020   68.6150 C.3   147  THR147      0.1862
     57  C         65.4120   49.9100   67.5450 C.2   147  THR147      0.2287
     58  O         66.1750   50.8740   67.7200 O.2   147  THR147     -0.2866
     59  CB        62.9820   49.7950   68.0440 C.3   147  THR147      0.1770
     60  OG1       62.5930   51.1350   68.3700 O.3   147  THR147     -0.2211
     61  CG2       61.9630   48.8140   68.5900 C.3   147  THR147      0.0375
     62  N         63.3010   42.3000   76.2920 N.3   175  HIS175     -0.1241
     63  CA        62.0090   42.0080   75.6470 C.3   175  HIS175      0.1621
     64  C         61.9450   40.6820   74.9020 C.2   175  HIS175      0.2264
     65  O         62.8290   40.3530   74.1100 O.2   175  HIS175     -0.2867
     66  CB        61.6370   43.1410   74.6690 C.3   175  HIS175      0.0745
     67  CG        60.4420   42.8430   73.8080 C.ar  175  HIS175      0.0817
     68  ND1       60.5200   42.7590   72.4320 N.ar  175  HIS175     -0.2268
     69  CD2       59.1400   42.6400   74.1220 C.ar  175  HIS175      0.1154
     70  CE1       59.3190   42.5200   71.9380 C.ar  175  HIS175      0.1986
     71  NE2       58.4630   42.4430   72.9410 N.ar  175  HIS175     -0.2212
     72  N         60.1530   38.8880   72.1140 N.3   177  PRO177     -0.2102
     73  CA        59.2370   38.9650   70.9700 C.3   177  PRO177      0.1504
     74  C         58.2950   37.7640   70.9090 C.2   177  PRO177      0.2576
     75  O         58.5730   36.7110   71.4860 O.2   177  PRO177     -0.2718
     76  CB        60.1850   39.0060   69.7760 C.3   177  PRO177      0.0282
     77  CG        61.4110   39.6800   70.3360 C.3   177  PRO177      0.0208
     78  CD        61.5540   39.0310   71.6830 C.3   177  PRO177      0.0893
     79  N         57.1830   37.9180   70.2030 N.am  178  SER178     -0.1953
     80  CA        56.2110   36.8340   70.0780 C.3   178  SER178      0.1924
     81  C         56.5520   35.8820   68.9180 C.2   178  SER178      0.2314
     82  O         56.1080   34.7200   68.9080 O.2   178  SER178     -0.2863
     83  CB        54.7980   37.4040   69.8800 C.3   178  SER178      0.2116
     84  OG        54.7310   38.1890   68.7010 O.3   178  SER178     -0.2180
     85  N         58.9520   39.2490   64.3310 N.3   182  GLU182     -0.1245
     86  CA        58.9530   40.3920   65.2190 C.3   182  GLU182      0.1567
     87  C         60.3850   40.6860   65.6280 C.2   182  GLU182      0.2260
     88  O         60.8340   41.8320   65.5910 O.2   182  GLU182     -0.2867
     89  CB        58.1080   40.0880   66.4520 C.3   182  GLU182      0.0388
     90  CG        57.1810   41.2210   66.8540 C.3   182  GLU182      0.1160
     91  CD        56.4160   40.9110   68.1200 C.2   182  GLU182      0.3649
     92  OE1       57.0620   40.7570   69.1730 O.co2 182  GLU182     -0.2457
     93  OE2       55.1760   40.8130   68.0700 O.co2 182  GLU182     -0.2457
     94  N         62.0770   44.0440   64.6590 N.3   186  LEU186     -0.1245
     95  CA        62.3450   45.0360   65.6870 C.3   186  LEU186      0.1561
     96  C         63.8080   45.2530   66.0170 C.2   186  LEU186      0.2260
     97  O         64.2090   46.3830   66.2950 O.2   186  LEU186     -0.2867
     98  CB        61.6180   44.6750   66.9750 C.3   186  LEU186      0.0270
     99  CG        60.3550   45.4520   67.3440 C.3   186  LEU186      0.0019
    100  CD1       59.3060   45.2730   66.2630 C.3   186  LEU186      0.0001
    101  CD2       59.8380   44.9680   68.6930 C.3   186  LEU186      0.0001
    102  N         46.2230   42.7200   74.7100 N.3   217  GLY217     -0.1210
    103  CA        46.5890   42.5800   73.3090 C.3   217  GLY217      0.1956
    104  C         48.0140   42.1940   72.9470 C.2   217  GLY217      0.2612
    105  O         48.3240   42.0400   71.7680 O.2   217  GLY217     -0.2717
    106  N         48.8870   42.0220   73.9290 N.am  218  GLN218     -0.1966
    107  CA        50.2630   41.6640   73.6120 C.3   218  GLN218      0.1718
    108  C         50.6460   40.2280   73.9800 C.2   218  GLN218      0.2458
    109  O         50.3450   39.7680   75.0880 O.2   218  GLN218     -0.2730
    110  CB        51.2170   42.6420   74.3060 C.3   218  GLN218      0.0407
    111  CG        51.0230   44.0930   73.9030 C.3   218  GLN218      0.0908
    112  CD        51.0790   44.2800   72.4070 C.2   218  GLN218      0.2608
    113  OE1       52.0540   43.9050   71.7500 O.2   218  GLN218     -0.2717
    114  NE2       50.0300   44.8610   71.8540 N.am  218  GLN218     -0.0878
    115  N         51.2750   39.4920   73.0350 N.am  219  PRO219     -0.2716
    116  CA        51.7300   38.1060   73.2130 C.3   219  PRO219      0.1536
    117  C         53.1580   38.1240   73.7520 C.2   219  PRO219      0.2599
    118  O         53.6020   37.1650   74.3690 O.2   219  PRO219     -0.2715
    119  CB        51.6830   37.5170   71.8000 C.3   219  PRO219      0.0310
    120  CG        50.7610   38.4200   71.0640 C.3   219  PRO219      0.0237
    121  CD        51.1400   39.7780   71.6000 C.3   219  PRO219      0.0939
    122  N         53.8700   39.2220   73.5010 N.am  220  GLY220     -0.1955
    123  CA        55.2360   39.3630   73.9810 C.3   220  GLY220      0.1869
    124  C         55.2970   39.7300   75.4570 C.2   220  GLY220      0.2309
    125  O         54.2680   39.8850   76.1070 O.2   220  GLY220     -0.2863
@<TRIPOS>BOND
     1    85    86    1
     2    94    95    1
     3    86    87    1
     4    86    89    1
     5    88    87    2
     6    95    96    1
     7    95    98    1
     8    96    97    2
     9   100    99    1
    10    89    90    1
    11    90    91    1
    12    98    99    1
    13    99   101    1
    14    57    58    2
    15    57    56    1
    16    59    60    1
    17    59    61    1
    18    59    56    1
    19    93    91   ar
    20    91    92   ar
    21    56    55    1
    22    84    83    1
    23    82    81    2
    24    81    80    1
    25    76    77    1
    26    76    73    1
    27    40    38   am
    28    83    80    1
    29    80    79    1
    30    79    74   am
    31    77    78    1
    32    74    73    1
    33    74    75    2
    34    73    72    1
    35   120   121    1
    36   120   119    1
    37    38    39    2
    38    38    37    1
    39   121   115    1
    40    78    72    1
    41   113   112    2
    42   105   104    2
    43   119   116    1
    44   114   112   am
    45    20    19    2
    46    70    68   ar
    47    70    71   ar
    48    31    32    1
    49    31    28    1
    50    37    34    1
    51    14    13    1
    52    14    15    1
    53   112   111    1
    54    68    67   ar
    55    17    15   am
    56    17    18    1
    57    49    50   ar
    58    49    47   ar
    59    52    50   ar
    60    52    54   ar
    61    33    34    1
    62    44    43    2
    63    19    18    1
    64    19    21   am
    65    27    28    1
    66    27    23   am
    67    71    69   ar
    68   104   103    1
    69   104   106   am
    70    50    48   ar
    71   115   116    1
    72   115   108   am
    73    28    29    1
    74    54    53   ar
    75    15    16    2
    76    47    46   ar
    77    34    35    1
    78   116   117    1
    79   103   102    1
    80    22    23    1
    81    22    21    1
    82    22    25    1
    83   122   117   am
    84   122   123    1
    85   107   106    1
    86   107   108    1
    87   107   110    1
    88    23    24    2
    89    36    35    2
    90    43    42    1
    91    48    46   ar
    92    48    51   ar
    93   117   118    2
    94    46    45    1
    95    67    69   ar
    96    67    66    1
    97    53    51   ar
    98   111   110    1
    99    26    25    1
   100   108   109    2
   101   123   124    1
   102    12    11    1
   103    65    64    2
   104    29    30    2
   105    45    42    1
   106    66    63    1
   107     9    11   ar
   108     9     7   ar
   109    64    63    1
   110    42    41    1
   111    11    10   ar
   112   124   125    2
   113    63    62    1
   114     7     6   ar
   115    10     8   ar
   116     6     8   ar
   117     6     5    1
   118     5     2    1
   119     2     1    1
   120     2     3    1
   121     3     4    2
