@<TRIPOS>MOLECULE
tmp/1mqnC03.pdb
 126 123 0 0 0
SMALL
GASTEIGER

@<TRIPOS>ATOM
      1  N         63.4620    6.8290   82.1020 N.3    90  TYR90      -0.1241
      2  CA        64.4780    7.6570   81.4150 C.3    90  TYR90       0.1605
      3  C         65.1870    8.6440   82.3820 C.2    90  TYR90       0.2264
      4  O         64.5400    9.2460   83.2440 O.2    90  TYR90      -0.2867
      5  CB        63.8280    8.4320   80.2610 C.3    90  TYR90       0.0534
      6  CG        64.7960    9.0190   79.2280 C.ar   90  TYR90      -0.0201
      7  CD1       65.1950    8.2730   78.1160 C.ar   90  TYR90      -0.0009
      8  CD2       65.3480   10.3050   79.3880 C.ar   90  TYR90      -0.0009
      9  CE1       66.1170    8.7750   77.1930 C.ar   90  TYR90       0.0417
     10  CE2       66.2820   10.8170   78.4630 C.ar   90  TYR90       0.0417
     11  CZ        66.6610   10.0370   77.3710 C.ar   90  TYR90       0.1957
     12  OH        67.6120   10.4650   76.4680 O.3    90  TYR90      -0.2866
     13  N         56.7120    9.1020   72.7070 N.3   126  GLY126     -0.1210
     14  CA        58.0900    8.7200   72.4990 C.3   126  GLY126      0.1956
     15  C         58.4940    7.8420   73.6570 C.2   126  GLY126      0.2612
     16  O         57.8600    7.8950   74.6970 O.2   126  GLY126     -0.2717
     17  N         59.5410    7.0420   73.4990 N.am  127  GLY127     -0.1942
     18  CA        59.9560    6.1720   74.5840 C.3   127  GLY127      0.2014
     19  C         61.4040    5.7760   74.4500 C.2   127  GLY127      0.2640
     20  O         62.0920    6.2160   73.5300 O.2   127  GLY127     -0.2714
     21  N         61.8630    4.9220   75.3530 N.am  128  SER128     -0.1935
     22  CA        63.2590    4.5100   75.3480 C.3   128  SER128      0.2055
     23  C         63.4370    3.1210   75.9270 C.2   128  SER128      0.2643
     24  O         62.5120    2.5530   76.4880 O.2   128  SER128     -0.2714
     25  CB        64.0790    5.5210   76.1680 C.3   128  SER128      0.2130
     26  OG        65.3990    5.0570   76.4200 O.3   128  SER128     -0.2179
     27  N         64.6330    2.5640   75.8030 N.am  129  SER129     -0.1949
     28  CA        64.8440    1.2410   76.3630 C.3   129  SER129      0.1924
     29  C         65.2070    1.4070   77.8210 C.2   129  SER129      0.2314
     30  O         65.4310    0.4270   78.5360 O.2   129  SER129     -0.2863
     31  CB        65.9840    0.5230   75.6680 C.3   129  SER129      0.2116
     32  OG        67.2100    1.0900   76.0780 O.3   129  SER129     -0.2180
     33  N         59.6510   -0.4150   74.6900 N.3   137  ASN137     -0.1240
     34  CA        60.2730    0.8320   75.1240 C.3   137  ASN137      0.1653
     35  C         59.1820    1.8110   75.5420 C.2   137  ASN137      0.2266
     36  O         58.2830    2.1050   74.7580 O.2   137  ASN137     -0.2867
     37  CB        61.1060    1.4250   73.9900 C.3   137  ASN137      0.1155
     38  CG        62.3050    0.5830   73.6840 C.2   137  ASN137      0.2627
     39  OD1       62.7970   -0.1200   74.5690 O.2   137  ASN137     -0.2716
     40  ND2       62.7950    0.6400   72.4460 N.am  137  ASN137     -0.0877
     41  N         56.7010   12.3230   74.9090 N.3   145  TRP145     -0.1241
     42  CA        57.9100   12.6420   74.1590 C.3   145  TRP145      0.1605
     43  C         57.5490   12.8360   72.6770 C.2   145  TRP145      0.2264
     44  O         57.1780   11.8770   71.9970 O.2   145  TRP145     -0.2867
     45  CB        58.9460   11.5140   74.3010 C.3   145  TRP145      0.0550
     46  CG        60.3440   11.9000   73.8970 C.ar  145  TRP145      0.0003
     47  CD1       60.7220   13.0260   73.2270 C.ar  145  TRP145      0.0946
     48  CD2       61.5550   11.1870   74.1990 C.ar  145  TRP145      0.0152
     49  NE1       62.0880   13.0700   73.0980 N.ar  145  TRP145     -0.2442
     50  CE2       62.6260   11.9560   73.6870 C.ar  145  TRP145      0.0810
     51  CE3       61.8400    9.9780   74.8550 C.ar  145  TRP145      0.0012
     52  CZ2       63.9610   11.5600   73.8100 C.ar  145  TRP145      0.0191
     53  CZ3       63.1710    9.5810   74.9770 C.ar  145  TRP145      0.0001
     54  CH2       64.2150   10.3760   74.4570 C.ar  145  TRP145      0.0015
     55  N         58.5050   13.9400   68.6850 N.3   147  THR147     -0.1218
     56  CA        59.6710   13.9110   67.8070 C.3   147  THR147      0.1862
     57  C         59.2170   14.3080   66.4240 C.2   147  THR147      0.2287
     58  O         58.0390   14.5760   66.2150 O.2   147  THR147     -0.2866
     59  CB        60.3310   12.5050   67.7510 C.3   147  THR147      0.1770
     60  OG1       59.3220   11.4890   67.7900 O.3   147  THR147     -0.2211
     61  CG2       61.2750   12.3160   68.9200 C.3   147  THR147      0.0375
     62  N         64.0400   18.0300   76.3990 N.3   175  HIS175     -0.1241
     63  CA        65.0070   16.9510   76.2060 C.3   175  HIS175      0.1621
     64  C         66.3840   17.4030   75.7420 C.2   175  HIS175      0.2264
     65  O         66.5100   18.2140   74.8220 O.2   175  HIS175     -0.2867
     66  CB        64.4360   15.9320   75.2090 C.3   175  HIS175      0.0745
     67  CG        65.4440   14.8960   74.7850 C.ar  175  HIS175      0.0817
     68  ND1       65.8360   14.7500   73.4760 N.ar  175  HIS175     -0.2268
     69  CD2       66.1770   14.0380   75.5140 C.ar  175  HIS175      0.1154
     70  CE1       66.7960   13.8410   73.4200 C.ar  175  HIS175      0.1986
     71  NE2       67.0210   13.3910   74.6370 N.ar  175  HIS175     -0.2212
     72  N         72.0130   13.7240   66.8810 N.3   182  GLU182     -0.1245
     73  CA        70.7660   13.3260   67.5470 C.3   182  GLU182      0.1567
     74  C         69.7600   14.4880   67.5100 C.2   182  GLU182      0.2260
     75  O         68.5820   14.2850   67.2290 O.2   182  GLU182     -0.2867
     76  CB        71.0380   12.9090   69.0070 C.3   182  GLU182      0.0388
     77  CG        70.2440   11.6820   69.4990 C.3   182  GLU182      0.1160
     78  CD        70.4570   11.3720   70.9880 C.2   182  GLU182      0.3649
     79  OE1       69.9730   12.1360   71.8550 O.co2 182  GLU182     -0.2457
     80  OE2       71.1180   10.3590   71.2960 O.co2 182  GLU182     -0.2457
     81  N         66.3470   14.0340   65.5450 N.3   186  LEU186     -0.1245
     82  CA        65.0750   13.9290   66.2400 C.3   186  LEU186      0.1561
     83  C         64.1310   15.1150   66.0600 C.2   186  LEU186      0.2260
     84  O         62.9340   14.9330   65.9370 O.2   186  LEU186     -0.2867
     85  CB        65.3310   13.7390   67.7350 C.3   186  LEU186      0.0270
     86  CG        65.3910   12.3210   68.3150 C.3   186  LEU186      0.0019
     87  CD1       66.2270   11.4270   67.4230 C.3   186  LEU186      0.0001
     88  CD2       65.9540   12.3660   69.7200 C.3   186  LEU186      0.0001
     89  N         76.2730    7.4670   80.8420 N.3   214  TRP214     -0.1241
     90  CA        75.1750    6.5550   80.5280 C.3   214  TRP214      0.1605
     91  C         74.3750    6.0930   81.7420 C.2   214  TRP214      0.2264
     92  O         74.9270    5.4920   82.6700 O.2   214  TRP214     -0.2867
     93  CB        75.7110    5.3050   79.8580 C.3   214  TRP214      0.0550
     94  CG        75.9230    5.4070   78.4090 C.ar  214  TRP214      0.0003
     95  CD1       76.2070    6.5240   77.6690 C.ar  214  TRP214      0.0946
     96  CD2       75.9260    4.3090   77.5090 C.ar  214  TRP214      0.0152
     97  NE1       76.3980    6.1780   76.3520 N.ar  214  TRP214     -0.2442
     98  CE2       76.2340    4.8230   76.2320 C.ar  214  TRP214      0.0810
     99  CE3       75.7150    2.9370   77.6610 C.ar  214  TRP214      0.0012
    100  CZ2       76.3250    3.9980   75.1140 C.ar  214  TRP214      0.0191
    101  CZ3       75.8060    2.1280   76.5630 C.ar  214  TRP214      0.0001
    102  CH2       76.1040    2.6580   75.3000 C.ar  214  TRP214      0.0015
    103  N         71.8150    3.1360   79.8890 N.3   217  GLY217     -0.1210
    104  CA        72.1250    3.1680   78.4660 C.3   217  GLY217      0.1956
    105  C         71.8810    4.4820   77.7570 C.2   217  GLY217      0.2612
    106  O         71.9820    4.5680   76.5330 O.2   217  GLY217     -0.2717
    107  N         71.5760    5.5150   78.5280 N.am  218  GLN218     -0.1966
    108  CA        71.2980    6.8150   77.9340 C.3   218  GLN218      0.1718
    109  C         72.1500    7.9900   78.3410 C.2   218  GLN218      0.2458
    110  O         72.1250    8.3940   79.5130 O.2   218  GLN218     -0.2730
    111  CB        69.8630    7.1760   78.1660 C.3   218  GLN218      0.0407
    112  CG        68.9110    6.2460   77.4590 C.3   218  GLN218      0.0908
    113  CD        69.1000    6.3040   75.9560 C.2   218  GLN218      0.2608
    114  OE1       69.4470    7.3570   75.4160 O.2   218  GLN218     -0.2717
    115  NE2       68.8700    5.1920   75.2650 N.am  218  GLN218     -0.0878
    116  N         72.8840    8.5570   77.3450 N.am  219  PRO219     -0.2716
    117  CA        73.7530    9.7550   77.4860 C.3   219  PRO219      0.1536
    118  C         72.8910   10.9650   77.7140 C.2   219  PRO219      0.2599
    119  O         73.1880   11.8200   78.5460 O.2   219  PRO219     -0.2715
    120  CB        74.4320    9.8340   76.1190 C.3   219  PRO219      0.0310
    121  CG        74.4990    8.4960   75.6870 C.3   219  PRO219      0.0237
    122  CD        73.1270    7.9380   76.0490 C.3   219  PRO219      0.0939
    123  N         71.8020   11.0370   76.9450 N.am  220  GLY220     -0.1955
    124  CA        70.8720   12.1430   77.0460 C.3   220  GLY220      0.1869
    125  C         70.1860   12.2210   78.3980 C.2   220  GLY220      0.2309
    126  O         70.4480   11.3910   79.2690 O.2   220  GLY220     -0.2863
@<TRIPOS>BOND
     1    81    82    1
     2    84    83    2
     3    83    82    1
     4    58    57    2
     5    82    85    1
     6    57    56    1
     7    72    73    1
     8    75    74    2
     9    87    86    1
    10    74    73    1
    11    73    76    1
    12    85    86    1
    13    59    60    1
    14    59    56    1
    15    59    61    1
    16    56    55    1
    17    86    88    1
    18    76    77    1
    19    77    78    1
    20    78    80   ar
    21    78    79   ar
    22    44    43    2
    23    40    38   am
    24    14    13    1
    25    14    15    1
    26    43    42    1
    27    49    47   ar
    28    49    50   ar
    29    47    46   ar
    30    70    68   ar
    31    70    71   ar
    32    68    67   ar
    33    17    15   am
    34    17    18    1
    35    20    19    2
    36    15    16    2
    37    38    37    1
    38    38    39    2
    39    50    52   ar
    40    50    48   ar
    41    52    54   ar
    42    46    48   ar
    43    46    45    1
    44    37    34    1
    45    42    45    1
    46    42    41    1
    47    48    51   ar
    48    19    18    1
    49    19    21   am
    50    54    53   ar
    51    71    69   ar
    52    33    34    1
    53    36    35    2
    54    67    66    1
    55    67    69   ar
    56    65    64    2
    57    51    53   ar
    58   100   102   ar
    59   100    98   ar
    60    34    35    1
    61    66    63    1
    62   115   113   am
    63   102   101   ar
    64    22    21    1
    65    22    23    1
    66    22    25    1
    67   114   113    2
    68    31    32    1
    69    31    28    1
    70   121   122    1
    71   121   120    1
    72    64    63    1
    73    27    23   am
    74    27    28    1
    75    23    24    2
    76   113   112    1
    77   122   116    1
    78   120   117    1
    79    25    26    1
    80    63    62    1
    81    98    97   ar
    82    98    96   ar
    83    97    95   ar
    84    28    29    1
    85    12    11    1
    86   106   105    2
    87   101    99   ar
    88   123   124    1
    89   123   118   am
    90   124   125    1
    91     9    11   ar
    92     9     7   ar
    93   116   117    1
    94   116   109   am
    95    11    10   ar
    96   112   111    1
    97   117   118    1
    98    96    99   ar
    99    96    94   ar
   100    95    94   ar
   101   118   119    2
   102   105   104    1
   103   105   107   am
   104    29    30    2
   105   108   111    1
   106   108   109    1
   107   108   107    1
   108     7     6   ar
   109   109   110    2
   110   125   126    2
   111    94    93    1
   112    10     8   ar
   113   104   103    1
   114     6     8   ar
   115     6     5    1
   116    93    90    1
   117     5     2    1
   118    90    89    1
   119    90    91    1
   120     2     1    1
   121     2     3    1
   122    91    92    2
   123     3     4    2
