@<TRIPOS>MOLECULE
tmp/1mqoA00.pdb
 105 100 0 0 0
SMALL
GASTEIGER

@<TRIPOS>ATOM
      1  N         10.0860   16.3800   22.1570 N.3    28  PHE28      -0.1241
      2  CA         9.4380   15.9840   23.3950 C.3    28  PHE28       0.1605
      3  C          9.7070   17.0640   24.4210 C.2    28  PHE28       0.2264
      4  O         10.8550   17.4750   24.6180 O.2    28  PHE28      -0.2867
      5  CB         9.9700   14.6560   23.9230 C.3    28  PHE28       0.0534
      6  CG         9.2280   14.1660   25.1250 C.ar   28  PHE28      -0.0203
      7  CD1        7.9340   13.6640   24.9910 C.ar   28  PHE28      -0.0042
      8  CD2        9.7840   14.2670   26.3970 C.ar   28  PHE28      -0.0042
      9  CE1        7.2020   13.2720   26.1120 C.ar   28  PHE28      -0.0003
     10  CE2        9.0560   13.8780   27.5260 C.ar   28  PHE28      -0.0003
     11  CZ         7.7630   13.3810   27.3780 C.ar   28  PHE28      -0.0000
     12  N         14.4340   15.3600   19.9430 N.3    33  VAL33      -0.1245
     13  CA        14.7720   13.9920   20.3320 C.3    33  VAL33       0.1561
     14  C         14.6360   13.0090   19.1830 C.2    33  VAL33       0.2260
     15  O         13.5790   12.9310   18.5560 O.2    33  VAL33      -0.2867
     16  CB        13.8510   13.5000   21.4730 C.3    33  VAL33       0.0252
     17  CG1       14.2170   12.0720   21.8720 C.3    33  VAL33       0.0019
     18  CG2       13.9520   14.4260   22.6580 C.3    33  VAL33       0.0019
     19  N          6.6500   10.2460   15.4750 N.3    53  TRP53      -0.1241
     20  CA         6.1180   11.1520   16.4790 C.3    53  TRP53       0.1605
     21  C          4.7670   11.8010   16.2380 C.2    53  TRP53       0.2264
     22  O          4.0100   12.0540   17.1780 O.2    53  TRP53      -0.2867
     23  CB         7.0890   12.3070   16.7270 C.3    53  TRP53       0.0550
     24  CG         8.4510   11.9210   17.1760 C.ar   53  TRP53       0.0003
     25  CD1        9.5170   11.5970   16.3870 C.ar   53  TRP53       0.0946
     26  CD2        8.9260   11.9100   18.5230 C.ar   53  TRP53       0.0152
     27  NE1       10.6360   11.3950   17.1590 N.ar   53  TRP53      -0.2442
     28  CE2       10.3040   11.5780   18.4750 C.ar   53  TRP53       0.0810
     29  CE3        8.3230   12.1500   19.7640 C.ar   53  TRP53       0.0012
     30  CZ2       11.1010   11.4780   19.6360 C.ar   53  TRP53       0.0191
     31  CZ3        9.1250   12.0460   20.9280 C.ar   53  TRP53       0.0001
     32  CH2       10.4940   11.7120   20.8420 C.ar   53  TRP53       0.0015
     33  N          1.6180    6.1360   24.1320 N.3    82  HIS82      -0.1241
     34  CA         2.0330    7.5460   24.2430 C.3    82  HIS82       0.1621
     35  C          2.0310    8.2050   22.8950 C.2    82  HIS82       0.2264
     36  O          2.2460    7.5660   21.8620 O.2    82  HIS82      -0.2867
     37  CB         3.4560    7.6570   24.7520 C.3    82  HIS82       0.0745
     38  CG         3.5670    7.6690   26.2380 C.ar   82  HIS82       0.0817
     39  ND1        4.7740    7.5400   26.8770 N.ar   82  HIS82      -0.2268
     40  CD2        2.6420    7.8590   27.2070 C.ar   82  HIS82       0.1154
     41  CE1        4.5990    7.6570   28.1770 C.ar   82  HIS82       0.1986
     42  NE2        3.3150    7.8510   28.4080 N.ar   82  HIS82      -0.2212
     43  N          4.2620    9.8530   21.6350 N.3    84  ASP84      -0.1239
     44  CA         5.5250    9.6210   20.9530 C.3    84  ASP84       0.1674
     45  C          5.5180    8.4120   20.0090 C.2    84  ASP84       0.2266
     46  O          6.2920    8.3660   19.0520 O.2    84  ASP84      -0.2867
     47  CB         6.7010    9.5870   21.9900 C.3    84  ASP84       0.1410
     48  CG         6.5560    8.5090   23.0840 C.2    84  ASP84       0.3668
     49  OD1        6.9270    7.3650   22.8050 O.co2  84  ASP84      -0.2456
     50  OD2        6.0850    8.8170   24.1880 O.co2  84  ASP84      -0.2456
     51  N          8.3660    1.3030   31.0980 N.3   143  HIS143     -0.1241
     52  CA         8.3060    2.6970   30.6540 C.3   143  HIS143      0.1621
     53  C          6.8450    3.1400   30.7450 C.2   143  HIS143      0.2264
     54  O          6.5470    4.2690   31.1530 O.2   143  HIS143     -0.2867
     55  CB         8.8130    2.7870   29.2120 C.3   143  HIS143      0.0745
     56  CG         8.5440    4.1020   28.5590 C.ar  143  HIS143      0.0817
     57  ND1        9.2430    5.2550   28.8620 N.ar  143  HIS143     -0.2268
     58  CD2        7.6530    4.4480   27.5960 C.ar  143  HIS143      0.1154
     59  CE1        8.7910    6.2480   28.1180 C.ar  143  HIS143      0.1986
     60  NE2        7.8270    5.7860   27.3390 N.ar  143  HIS143     -0.2212
     61  N         10.7810    1.9240   23.9960 N.3   162  CYS162     -0.1235
     62  CA        11.1750    2.8020   25.0870 C.3   162  CYS162      0.1677
     63  C         11.4660    2.0820   26.3940 C.2   162  CYS162      0.2270
     64  O         11.9530    2.6880   27.3460 O.2   162  CYS162     -0.2867
     65  CB        10.1460    3.9480   25.2430 C.3   162  CYS162      0.0956
     66  SG         9.9760    4.9570   23.7350 S.3   162  CYS162     -0.0801
     67  N         16.9200    1.2330   27.1140 N.3   165  LYS165     -0.1245
     68  CA        17.7500    2.4150   26.9430 C.3   165  LYS165      0.1561
     69  C         19.0560    2.1210   26.2180 C.2   165  LYS165      0.2260
     70  O         19.6070    1.0470   26.3240 O.2   165  LYS165     -0.2867
     71  CB        18.0880    2.9970   28.3150 C.3   165  LYS165      0.0271
     72  CG        16.8700    3.2860   29.1840 C.3   165  LYS165      0.0035
     73  CD        15.9590    4.2690   28.4970 C.3   165  LYS165      0.0206
     74  CE        15.0410    4.9490   29.4660 C.3   165  LYS165      0.1093
     75  NZ        14.4840    6.1730   28.8240 N.3   165  LYS165     -0.1314
     76  N         19.9790    8.3700   32.2380 N.3   171  ASP171     -0.1239
     77  CA        18.8310    8.4460   33.1300 C.3   171  ASP171      0.1674
     78  C         17.6730    7.6950   32.4680 C.2   171  ASP171      0.2266
     79  O         17.7890    7.2380   31.3290 O.2   171  ASP171     -0.2867
     80  CB        18.4300    9.9040   33.3500 C.3   171  ASP171      0.1410
     81  CG        18.1970   10.6330   32.0470 C.2   171  ASP171      0.3668
     82  OD1       19.1880   11.0850   31.4340 O.co2 171  ASP171     -0.2456
     83  OD2       17.0260   10.7350   31.6170 O.co2 171  ASP171     -0.2456
     84  N         14.7890    8.9810   31.5220 N.3   173  GLY173     -0.1210
     85  CA        13.9380    9.7980   30.6800 C.3   173  GLY173      0.1956
     86  C         12.5610   10.0600   31.2690 C.2   173  GLY173      0.2611
     87  O         12.4200   10.2860   32.4710 O.2   173  GLY173     -0.2717
     88  N         11.5280   10.0350   30.4300 N.am  174  ASN174     -0.1974
     89  CA        10.1820   10.3050   30.9100 C.3   174  ASN174      0.1688
     90  C          9.6020    9.1780   31.7400 C.2   174  ASN174      0.2292
     91  O          9.2350    8.1420   31.1870 O.2   174  ASN174     -0.2864
     92  CB         9.2590   10.5820   29.7210 C.3   174  ASN174      0.1181
     93  CG         7.8080   10.7700   30.1330 C.2   174  ASN174      0.2629
     94  OD1        7.4960   11.2240   31.2410 O.2   174  ASN174     -0.2716
     95  ND2        6.9050   10.4440   29.2180 N.am  174  ASN174     -0.0877
     96  N         15.5150    4.8660   21.6010 N.3   204  HIS204     -0.1241
     97  CA        16.2980    6.0410   21.2240 C.3   204  HIS204      0.1621
     98  C         17.7630    5.6670   21.3060 C.2   204  HIS204      0.2264
     99  O         18.1810    4.9430   22.2180 O.2   204  HIS204     -0.2867
    100  CB        16.0570    7.1810   22.2100 C.3   204  HIS204      0.0745
    101  CG        14.6180    7.5060   22.3990 C.ar  204  HIS204      0.0817
    102  ND1       13.9420    8.3610   21.5560 N.ar  204  HIS204     -0.2268
    103  CD2       13.7010    7.0360   23.2770 C.ar  204  HIS204      0.1154
    104  CE1       12.6700    8.4040   21.9090 C.ar  204  HIS204      0.1986
    105  NE2       12.4940    7.6020   22.9470 N.ar  204  HIS204     -0.2212
@<TRIPOS>BOND
     1    19    20    1
     2    21    20    1
     3    21    22    2
     4    25    27   ar
     5    25    24   ar
     6    20    23    1
     7    23    24    1
     8    27    28   ar
     9    24    26   ar
    10    28    26   ar
    11    28    30   ar
    12    26    29   ar
    13    15    14    2
    14    46    45    2
    15    14    13    1
    16    30    32   ar
    17    29    31   ar
    18    12    13    1
    19    45    44    1
    20    13    16    1
    21    32    31   ar
    22    44    43    1
    23    44    47    1
    24    97    98    1
    25    97    96    1
    26    97   100    1
    27    98    99    2
    28    16    17    1
    29    16    18    1
    30   102   104   ar
    31   102   101   ar
    32    36    35    2
    33   104   105   ar
    34    47    48    1
    35     1     2    1
    36   100   101    1
    37   101   103   ar
    38    49    48   ar
    39    35    34    1
    40   105   103   ar
    41    48    50   ar
    42     2     5    1
    43     2     3    1
    44    66    65    1
    45     5     6    1
    46    61    62    1
    47    33    34    1
    48    34    37    1
    49     3     4    2
    50    37    38    1
    51     7     6   ar
    52     7     9   ar
    53    62    65    1
    54    62    63    1
    55     6     8   ar
    56     9    11   ar
    57    69    70    2
    58    69    68    1
    59    38    39   ar
    60    38    40   ar
    61    63    64    2
    62     8    10   ar
    63    39    41   ar
    64    68    67    1
    65    68    71    1
    66    40    42   ar
    67    60    58   ar
    68    60    59   ar
    69    11    10   ar
    70    58    56   ar
    71    59    57   ar
    72    41    42   ar
    73    71    72    1
    74    73    72    1
    75    73    74    1
    76    56    57   ar
    77    56    55    1
    78    75    74    1
    79    55    52    1
    80    95    93   am
    81    92    93    1
    82    92    89    1
    83    93    94    2
    84    88    89    1
    85    88    86   am
    86    52    53    1
    87    52    51    1
    88    85    86    1
    89    85    84    1
    90    53    54    2
    91    89    90    1
    92    91    90    2
    93    86    87    2
    94    79    78    2
    95    82    81   ar
    96    83    81   ar
    97    81    80    1
    98    76    77    1
    99    78    77    1
   100    77    80    1
