@<TRIPOS>MOLECULE
tmp/1mqqA00.pdb
 156 151 0 0 0
SMALL
GASTEIGER

@<TRIPOS>ATOM
      1  N         31.3340   39.4520  148.4550 N.3   147  TRP147     -0.1241
      2  CA        30.9330   39.5180  149.8780 C.3   147  TRP147      0.1605
      3  C         32.1800   39.7300  150.7250 C.2   147  TRP147      0.2264
      4  O         32.2930   39.4260  151.9250 O.2   147  TRP147     -0.2867
      5  CB        30.0920   38.2860  150.2240 C.3   147  TRP147      0.0550
      6  CG        28.6570   38.3580  149.7550 C.ar  147  TRP147      0.0003
      7  CD1       28.0530   39.3390  149.0210 C.ar  147  TRP147      0.0946
      8  CD2       27.6440   37.3880  150.0100 C.ar  147  TRP147      0.0152
      9  NE1       26.7210   39.0500  148.7910 N.ar  147  TRP147     -0.2442
     10  CE2       26.4470   37.8360  149.3970 C.ar  147  TRP147      0.0810
     11  CE3       27.6490   36.1640  150.7040 C.ar  147  TRP147      0.0012
     12  CZ2       25.2750   37.0940  149.4700 C.ar  147  TRP147      0.0191
     13  CZ3       26.4720   35.4350  150.7670 C.ar  147  TRP147      0.0001
     14  CH2       25.2910   35.8970  150.1510 C.ar  147  TRP147      0.0015
     15  N         32.7270   36.7800  153.5000 N.3   155  GLU155     -0.1231
     16  CA        31.5320   36.1500  154.0410 C.3   155  GLU155      0.1699
     17  C         31.0460   35.0950  153.0370 C.2   155  GLU155      0.2592
     18  O         30.8080   35.3960  151.8690 O.2   155  GLU155     -0.2718
     19  CB        30.4360   37.1640  154.3590 C.3   155  GLU155      0.0402
     20  CG        29.2400   36.5220  155.0560 C.3   155  GLU155      0.1161
     21  CD        28.4450   37.5230  155.8810 C.2   155  GLU155      0.3649
     22  OE1       28.9060   38.6760  156.0740 O.co2 155  GLU155     -0.2457
     23  OE2       27.3330   37.1410  156.3090 O.co2 155  GLU155     -0.2457
     24  N         30.9650   33.8730  153.5380 N.am  156  ARG156     -0.1980
     25  CA        30.6390   32.7120  152.7260 C.3   156  ARG156      0.1597
     26  C         31.6430   32.5750  151.5670 C.2   156  ARG156      0.2287
     27  O         31.1630   32.2240  150.4850 O.2   156  ARG156     -0.2864
     28  CB        29.2260   32.7530  152.1490 C.3   156  ARG156      0.0334
     29  CG        28.1140   33.1040  153.1280 C.3   156  ARG156      0.0492
     30  CD        28.2950   32.3240  154.4490 C.3   156  ARG156      0.2205
     31  NE        27.3210   32.8760  155.4250 N.pl3 156  ARG156     -0.0865
     32  CZ        27.0920   32.2540  156.5850 C.cat 156  ARG156      0.5346
     33  NH1       27.7320   31.1280  156.8990 N.pl3 156  ARG156      0.1354
     34  NH2       26.2100   32.7720  157.4330 N.pl3 156  ARG156      0.1354
     35  N         31.1520   43.5130  150.6880 N.3   196  ASN196     -0.1225
     36  CA        30.0650   42.7660  151.2960 C.3   196  ASN196      0.1785
     37  C         28.7740   43.5480  151.4640 C.2   196  ASN196      0.2597
     38  O         28.8330   44.7240  151.8460 O.2   196  ASN196     -0.2718
     39  CB        30.5830   42.3000  152.6700 C.3   196  ASN196      0.1169
     40  CG        29.7330   41.2160  153.2990 C.2   196  ASN196      0.2627
     41  OD1       28.6470   40.8650  152.8170 O.2   196  ASN196     -0.2716
     42  ND2       30.2340   40.6720  154.4060 N.am  196  ASN196     -0.0877
     43  N         27.6340   42.9240  151.1910 N.am  197  VAL197     -0.1966
     44  CA        26.3300   43.5400  151.4010 C.3   197  VAL197      0.1727
     45  C         26.1110   43.8300  152.8870 C.2   197  VAL197      0.2616
     46  O         25.3770   44.7700  153.2320 O.2   197  VAL197     -0.2715
     47  CB        25.1950   42.6720  150.8570 C.3   197  VAL197      0.0290
     48  CG1       25.3290   42.5280  149.3240 C.3   197  VAL197      0.0023
     49  CG2       25.1600   41.2910  151.5040 C.3   197  VAL197      0.0023
     50  N         26.7360   43.0300  153.7470 N.am  198  ASN198     -0.1972
     51  CA        26.7950   43.3520  155.1710 C.3   198  ASN198      0.1688
     52  C         27.9220   44.3500  155.3680 C.2   198  ASN198      0.2292
     53  O         29.0900   43.9420  155.4070 O.2   198  ASN198     -0.2864
     54  CB        27.0170   42.1200  156.0550 C.3   198  ASN198      0.1181
     55  CG        25.8500   41.1640  156.0040 C.2   198  ASN198      0.2629
     56  OD1       24.6840   41.5660  155.9730 O.2   198  ASN198     -0.2716
     57  ND2       26.1600   39.8560  156.0140 N.am  198  ASN198     -0.0877
     58  N         21.5440   46.2320  151.0320 N.3   278  LYS278     -0.1245
     59  CA        20.8300   45.3170  151.9260 C.3   278  LYS278      0.1561
     60  C         20.2630   46.1330  153.0820 C.2   278  LYS278      0.2260
     61  O         21.0350   46.7030  153.8550 O.2   278  LYS278     -0.2867
     62  CB        21.7800   44.2230  152.3830 C.3   278  LYS278      0.0271
     63  CG        21.3880   43.4120  153.6020 C.3   278  LYS278      0.0035
     64  CD        22.4840   42.3920  153.9090 C.3   278  LYS278      0.0206
     65  CE        22.0420   41.4140  154.9800 C.3   278  LYS278      0.1093
     66  NZ        20.7020   40.8410  154.6940 N.3   278  LYS278     -0.1314
     67  N         18.1840   40.8590  158.3320 N.3   282  GLU282     -0.1245
     68  CA        19.1780   40.2260  159.1950 C.3   282  GLU282      0.1567
     69  C         19.8780   41.2710  160.0680 C.2   282  GLU282      0.2260
     70  O         21.0950   41.3640  160.1990 O.2   282  GLU282     -0.2867
     71  CB        20.1560   39.4050  158.3250 C.3   282  GLU282      0.0388
     72  CG        19.3490   38.3510  157.5380 C.3   282  GLU282      0.1160
     73  CD        20.2480   37.4250  156.7390 C.2   282  GLU282      0.3649
     74  OE1       21.3900   37.8200  156.4160 O.co2 282  GLU282     -0.2457
     75  OE2       19.8100   36.2940  156.4460 O.co2 282  GLU282     -0.2457
     76  N         18.0980   45.2010  147.3470 N.3   315  ARG315     -0.1245
     77  CA        17.8840   43.7550  147.5040 C.3   315  ARG315      0.1563
     78  C         16.5700   43.4220  148.1880 C.2   315  ARG315      0.2260
     79  O         16.2030   44.1000  149.1500 O.2   315  ARG315     -0.2867
     80  CB        19.0480   43.1500  148.3080 C.3   315  ARG315      0.0307
     81  CG        20.3920   43.2960  147.5950 C.3   315  ARG315      0.0489
     82  CD        21.4790   42.6480  148.3990 C.3   315  ARG315      0.2205
     83  NE        21.6410   41.2020  148.3600 N.pl3 315  ARG315     -0.0865
     84  CZ        21.6240   40.3580  149.3850 C.cat 315  ARG315      0.5346
     85  NH1       21.4040   40.7730  150.6380 N.pl3 315  ARG315      0.1354
     86  NH2       21.8140   39.0440  149.2120 N.pl3 315  ARG315      0.1354
     87  N         15.8640   40.5550  149.6920 N.3   317  PHE317     -0.1241
     88  CA        16.0740   39.5110  150.6870 C.3   317  PHE317      0.1605
     89  C         15.7720   40.0920  152.0800 C.2   317  PHE317      0.2264
     90  O         16.6980   40.4790  152.7790 O.2   317  PHE317     -0.2867
     91  CB        17.5040   39.0330  150.5840 C.3   317  PHE317      0.0534
     92  CG        17.8950   37.8840  151.5050 C.ar  317  PHE317     -0.0203
     93  CD1       17.2820   36.6530  151.3250 C.ar  317  PHE317     -0.0042
     94  CD2       18.8510   38.0600  152.5000 C.ar  317  PHE317     -0.0042
     95  CE1       17.6220   35.5790  152.1310 C.ar  317  PHE317     -0.0003
     96  CE2       19.2030   36.9630  153.2830 C.ar  317  PHE317     -0.0003
     97  CZ        18.6140   35.7270  153.0770 C.ar  317  PHE317     -0.0000
     98  N         16.5320   37.1090  144.9330 N.3   356  LYS356     -0.1245
     99  CA        17.2760   35.8480  144.7130 C.3   356  LYS356      0.1561
    100  C         16.4550   34.8770  143.8770 C.2   356  LYS356      0.2260
    101  O         15.2370   35.0160  143.6940 O.2   356  LYS356     -0.2867
    102  CB        17.6420   35.1880  146.0470 C.3   356  LYS356      0.0271
    103  CG        18.4060   36.1230  146.9980 C.3   356  LYS356      0.0035
    104  CD        18.8910   35.3340  148.2320 C.3   356  LYS356      0.0206
    105  CE        19.9830   36.0890  148.9820 C.3   356  LYS356      0.1093
    106  NZ        20.4690   35.3390  150.1940 N.3   356  LYS356     -0.1314
    107  N         16.5370   31.0010  150.6030 N.3   361  ASP361     -0.1225
    108  CA        17.9250   31.4320  150.6860 C.3   361  ASP361      0.1805
    109  C         18.9040   30.4880  150.0130 C.2   361  ASP361      0.2597
    110  O         19.6730   29.7810  150.6770 O.2   361  ASP361     -0.2718
    111  CB        18.3620   31.5560  152.1640 C.3   361  ASP361      0.1424
    112  CG        19.7610   32.1000  152.3200 C.2   361  ASP361      0.3668
    113  OD1       20.3050   32.7290  151.3920 O.co2 361  ASP361     -0.2456
    114  OD2       20.3800   31.9030  153.3920 O.co2 361  ASP361     -0.2456
    115  N         18.8950   30.4730  148.6930 N.am  362  PHE362     -0.1976
    116  CA        19.9160   29.7860  147.9310 C.3   362  PHE362      0.1639
    117  C         20.0630   28.3000  148.3020 C.2   362  PHE362      0.2290
    118  O         21.1740   27.7910  148.2780 O.2   362  PHE362     -0.2864
    119  CB        21.2500   30.4780  148.1430 C.3   362  PHE362      0.0560
    120  CG        21.4050   31.8770  147.5660 C.ar  362  PHE362     -0.0200
    121  CD1       20.8280   32.2220  146.3460 C.ar  362  PHE362     -0.0042
    122  CD2       22.1100   32.8370  148.2440 C.ar  362  PHE362     -0.0042
    123  CE1       21.0060   33.5160  145.8740 C.ar  362  PHE362     -0.0003
    124  CE2       22.3350   34.1230  147.7550 C.ar  362  PHE362     -0.0003
    125  CZ        21.7720   34.4480  146.5280 C.ar  362  PHE362     -0.0000
    126  N         27.4410   28.3200  149.1660 N.3   389  GLU389     -0.1231
    127  CA        27.1270   28.2570  150.5980 C.3   389  GLU389      0.1699
    128  C         26.3350   27.0270  150.9850 C.2   389  GLU389      0.2592
    129  O         26.7250   26.3620  151.9660 O.2   389  GLU389     -0.2718
    130  CB        26.3670   29.5340  150.9810 C.3   389  GLU389      0.0402
    131  CG        25.9270   29.5160  152.4410 C.3   389  GLU389      0.1161
    132  CD        25.2690   30.8000  152.8840 C.2   389  GLU389      0.3649
    133  OE1       24.9880   31.7080  152.0690 O.co2 389  GLU389     -0.2457
    134  OE2       24.9960   30.9200  154.1110 O.co2 389  GLU389     -0.2457
    135  N         25.2680   26.6780  150.2660 N.am  390  TYR390     -0.1976
    136  CA        24.5040   25.5060  150.6680 C.3   390  TYR390      0.1639
    137  C         24.6300   24.3550  149.6630 C.2   390  TYR390      0.2290
    138  O         23.9470   23.3540  149.8090 O.2   390  TYR390     -0.2864
    139  CB        23.0310   25.8380  150.8150 C.3   390  TYR390      0.0560
    140  CG        22.7230   26.9250  151.8400 C.ar  390  TYR390     -0.0198
    141  CD1       22.6350   26.5850  153.2010 C.ar  390  TYR390     -0.0009
    142  CD2       22.5160   28.2330  151.4380 C.ar  390  TYR390     -0.0009
    143  CE1       22.3510   27.6000  154.1090 C.ar  390  TYR390      0.0417
    144  CE2       22.2260   29.2480  152.3630 C.ar  390  TYR390      0.0417
    145  CZ        22.1530   28.8930  153.6950 C.ar  390  TYR390      0.1957
    146  OH        21.8550   29.8780  154.6370 O.3   390  TYR390     -0.2866
    147  N         27.0220   26.4280  157.9960 N.3   524  HIS524     -0.1241
    148  CA        26.0950   25.8930  157.0040 C.3   524  HIS524      0.1621
    149  C         26.6130   24.7190  156.1900 C.2   524  HIS524      0.2264
    150  O         26.0320   24.4100  155.1430 O.2   524  HIS524     -0.2867
    151  CB        25.7210   27.0350  156.0420 C.3   524  HIS524      0.0745
    152  CG        24.8710   28.0480  156.7570 C.ar  524  HIS524      0.0817
    153  ND1       24.6630   29.3170  156.2720 N.ar  524  HIS524     -0.2268
    154  CD2       24.1880   27.9500  157.9410 C.ar  524  HIS524      0.1154
    155  CE1       23.8760   29.9730  157.1340 C.ar  524  HIS524      0.1986
    156  NE2       23.5790   29.1550  158.1510 N.ar  524  HIS524     -0.2212
@<TRIPOS>BOND
     1   101   100    2
     2   100    99    1
     3    99    98    1
     4    99   102    1
     5   123   121   ar
     6   123   125   ar
     7   102   103    1
     8   121   120   ar
     9   125   124   ar
    10   103   104    1
    11    76    77    1
    12    77    78    1
    13    77    80    1
    14   120   119    1
    15   120   122   ar
    16    81    80    1
    17    81    82    1
    18   124   122   ar
    19   116   119    1
    20   116   117    1
    21   116   115    1
    22    78    79    2
    23   104   105    1
    24   118   117    2
    25    83    82    1
    26    83    84    2
    27     1     2    1
    28   115   109   am
    29     9     7   ar
    30     9    10   ar
    31   105   106    1
    32     7     6   ar
    33   126   127    1
    34    86    84    1
    35    48    47    1
    36    84    85    1
    37    10    12   ar
    38    10     8   ar
    39    12    14   ar
    40   137   138    2
    41   137   136    1
    42    87    88    1
    43     6     8   ar
    44     6     5    1
    45     2     5    1
    46     2     3    1
    47     8    11   ar
    48   109   110    2
    49   109   108    1
    50    14    13   ar
    51   135   136    1
    52   135   128   am
    53    27    26    2
    54    91    88    1
    55    91    92    1
    56   127   130    1
    57   127   128    1
    58   107   108    1
    59   136   139    1
    60   108   111    1
    61    88    89    1
    62    35    36    1
    63    11    13   ar
    64     3     4    2
    65   139   140    1
    66    47    44    1
    67    47    49    1
    68   130   131    1
    69   128   129    2
    70    58    59    1
    71    43    44    1
    72    43    37   am
    73    36    37    1
    74    36    39    1
    75    93    92   ar
    76    93    95   ar
    77   113   112   ar
    78    44    45    1
    79   142   140   ar
    80   142   144   ar
    81    37    38    2
    82    92    94   ar
    83    26    25    1
    84   140   141   ar
    85    18    17    2
    86    59    62    1
    87    59    60    1
    88   133   132   ar
    89    89    90    2
    90    95    97   ar
    91    28    25    1
    92    28    29    1
    93   111   112    1
    94   112   114   ar
    95   144   145   ar
    96    62    63    1
    97   131   132    1
    98    94    96   ar
    99    39    40    1
   100    25    24    1
   101    41    40    2
   102   132   134   ar
   103    45    46    2
   104    45    50   am
   105    17    24   am
   106    17    16    1
   107    97    96   ar
   108    60    61    2
   109    29    30    1
   110   141   143   ar
   111    40    42   am
   112    15    16    1
   113    63    64    1
   114   145   143   ar
   115   145   146    1
   116    50    51    1
   117    64    65    1
   118    16    19    1
   119    19    20    1
   120    30    31    1
   121    66    65    1
   122    20    21    1
   123   150   149    2
   124    51    52    1
   125    51    54    1
   126    52    53    2
   127    31    32    2
   128    21    22   ar
   129    21    23   ar
   130    56    55    2
   131    55    57   am
   132    55    54    1
   133   151   152    1
   134   151   148    1
   135   149   148    1
   136   153   152   ar
   137   153   155   ar
   138    74    73   ar
   139    75    73   ar
   140    32    33    1
   141    32    34    1
   142    73    72    1
   143   152   154   ar
   144   148   147    1
   145   155   156   ar
   146    72    71    1
   147   154   156   ar
   148    71    68    1
   149    67    68    1
   150    68    69    1
   151    69    70    2
