@<TRIPOS>MOLECULE
tmp/1mqwA00.pdb
 143 137 0 0 0
SMALL
GASTEIGER

@<TRIPOS>ATOM
      1  N         34.2430   27.5850    7.5480 N.3    14  ALA14      -0.1231
      2  CA        33.1140   27.9810    6.7220 C.3    14  ALA14       0.1694
      3  C         31.7490   27.7730    7.3810 C.2    14  ALA14       0.2592
      4  O         30.8810   28.6480    7.2930 O.2    14  ALA14      -0.2718
      5  CB        33.1690   27.2360    5.3970 C.3    14  ALA14       0.0304
      6  N         31.5520   26.6350    8.0510 N.am   15  ILE15      -0.1966
      7  CA        30.2570   26.3640    8.6710 C.3    15  ILE15       0.1727
      8  C         30.2260   26.1030   10.1700 C.2    15  ILE15       0.2616
      9  O         29.1590   25.8560   10.7300 O.2    15  ILE15      -0.2715
     10  CB        29.5370   25.1870    7.9760 C.3    15  ILE15       0.0290
     11  CG1       30.2560   23.8750    8.2790 C.3    15  ILE15       0.0022
     12  CG2       29.4760   25.4370    6.4770 C.3    15  ILE15       0.0023
     13  CD1       29.5190   22.6640    7.7580 C.3    15  ILE15       0.0001
     14  N         31.3760   26.1380   10.8270 N.am   16  PHE16      -0.1974
     15  CA        31.3890   25.9340   12.2710 C.3    16  PHE16       0.1639
     16  C         32.6600   26.4790   12.8710 C.2    16  PHE16       0.2290
     17  O         33.6560   26.6690   12.1720 O.2    16  PHE16      -0.2864
     18  CB        31.2250   24.4470   12.6340 C.3    16  PHE16       0.0560
     19  CG        32.3490   23.5600   12.1620 C.ar   16  PHE16      -0.0200
     20  CD1       33.6150   23.6420   12.7330 C.ar   16  PHE16      -0.0042
     21  CD2       32.1340   22.6280   11.1520 C.ar   16  PHE16      -0.0042
     22  CE1       34.6520   22.8080   12.3070 C.ar   16  PHE16      -0.0003
     23  CE2       33.1590   21.7910   10.7200 C.ar   16  PHE16      -0.0003
     24  CZ        34.4210   21.8800   11.2980 C.ar   16  PHE16      -0.0000
     25  N         22.5010   11.9120   -1.2340 N.3    58  GLN58      -0.1245
     26  CA        23.5830   12.8810   -1.2880 C.3    58  GLN58       0.1566
     27  C         24.9160   12.3550   -0.7880 C.2    58  GLN58       0.2260
     28  O         24.9910   11.6680    0.2320 O.2    58  GLN58      -0.2867
     29  CB        23.1650   14.1190   -0.4860 C.3    58  GLN58       0.0367
     30  CG        24.1530   15.2700   -0.4870 C.3    58  GLN58       0.0905
     31  CD        23.5450   16.5230    0.1160 C.2    58  GLN58       0.2608
     32  OE1       22.6420   16.4400    0.9520 O.2    58  GLN58      -0.2717
     33  NE2       24.0410   17.6880   -0.2940 N.am   58  GLN58      -0.0878
     34  N         28.2860   12.3000    1.0720 N.3    60  ARG60      -0.1245
     35  CA        28.8060   12.8840    2.3020 C.3    60  ARG60       0.1563
     36  C         30.2830   12.5460    2.3810 C.2    60  ARG60       0.2260
     37  O         30.6570   11.3870    2.5630 O.2    60  ARG60      -0.2867
     38  CB        28.0840   12.3130    3.5260 C.3    60  ARG60       0.0307
     39  CG        26.6480   12.7620    3.6620 C.3    60  ARG60       0.0489
     40  CD        26.5710   14.2620    3.7750 C.3    60  ARG60       0.2205
     41  NE        25.2010   14.7120    3.9700 N.pl3  60  ARG60      -0.0865
     42  CZ        24.8370   15.9870    3.9940 C.cat  60  ARG60       0.5346
     43  NH1       25.7460   16.9390    3.8330 N.pl3  60  ARG60       0.1354
     44  NH2       23.5660   16.3080    4.1810 N.pl3  60  ARG60       0.1354
     45  N         32.3410   13.1290    4.6890 N.3    62  THR62      -0.1218
     46  CA        32.7080   12.6230    6.0040 C.3    62  THR62       0.1862
     47  C         32.7590   11.0970    6.0040 C.2    62  THR62       0.2287
     48  O         33.5880   10.4960    6.6920 O.2    62  THR62      -0.2866
     49  CB        31.7000   13.0650    7.0710 C.3    62  THR62       0.1770
     50  OG1       30.3840   12.6760    6.6610 O.3    62  THR62      -0.2211
     51  CG2       31.7620   14.5750    7.2790 C.3    62  THR62       0.0375
     52  N         17.2350   19.1020    3.3480 N.3    72  ALA72      -0.1231
     53  CA        17.6670   19.8960    4.4860 C.3    72  ALA72       0.1694
     54  C         18.7060   20.9520    4.1410 C.2    72  ALA72       0.2593
     55  O         19.4620   20.8080    3.1800 O.2    72  ALA72      -0.2718
     56  CB        18.2070   18.9870    5.5570 C.3    72  ALA72       0.0304
     57  N         18.7430   22.0070    4.9460 N.am   73  GLY73      -0.1942
     58  CA        19.6860   23.0830    4.7240 C.3    73  GLY73       0.2014
     59  C         20.1480   23.7650    6.0000 C.2    73  GLY73       0.2638
     60  O         19.4460   23.7360    7.0190 O.2    73  GLY73      -0.2714
     61  N         21.3340   24.3740    5.9370 N.am   74  LEU74      -0.1977
     62  CA        21.9330   25.0920    7.0640 C.3    74  LEU74       0.1596
     63  C         21.2240   26.4060    7.2980 C.2    74  LEU74       0.2287
     64  O         20.6300   26.9590    6.3770 O.2    74  LEU74      -0.2864
     65  CB        23.3870   25.4300    6.7680 C.3    74  LEU74       0.0297
     66  CG        24.3910   24.3160    6.5690 C.3    74  LEU74       0.0022
     67  CD1       25.7060   24.9150    6.1300 C.3    74  LEU74       0.0001
     68  CD2       24.5480   23.5470    7.8650 C.3    74  LEU74       0.0001
     69  N         22.3940   29.2220    7.4390 N.3    76  ASP76      -0.1239
     70  CA        23.5070   30.0930    7.0720 C.3    76  ASP76       0.1674
     71  C         23.0890   31.4340    6.4610 C.2    76  ASP76       0.2266
     72  O         23.9300   32.1630    5.9220 O.2    76  ASP76      -0.2867
     73  CB        24.4330   29.3720    6.0940 C.3    76  ASP76       0.1410
     74  CG        23.7030   28.8690    4.8590 C.2    76  ASP76       0.3668
     75  OD1       22.5820   29.3480    4.5840 O.co2  76  ASP76      -0.2456
     76  OD2       24.2560   28.0000    4.1530 O.co2  76  ASP76      -0.2456
     77  N         12.3540   27.2240    1.4380 N.3    88  ARG88      -0.1231
     78  CA        13.3120   27.5390    0.3870 C.3    88  ARG88       0.1694
     79  C         14.0480   26.2860   -0.0770 C.2    88  ARG88       0.2591
     80  O         14.1140   25.9860   -1.2720 O.2    88  ARG88      -0.2718
     81  CB        14.3510   28.5340    0.8940 C.3    88  ARG88       0.0321
     82  CG        15.3060   29.0020   -0.1880 C.3    88  ARG88       0.0489
     83  CD        16.5010   29.7030    0.4050 C.3    88  ARG88       0.2205
     84  NE        17.4060   28.7500    1.0390 N.pl3  88  ARG88      -0.0865
     85  CZ        18.3100   29.0830    1.9540 C.cat  88  ARG88       0.5346
     86  NH1       18.4290   30.3470    2.3420 N.pl3  88  ARG88       0.1354
     87  NH2       19.0880   28.1570    2.4960 N.pl3  88  ARG88       0.1354
     88  N         14.6120   25.5700    0.8930 N.am   89  GLU89      -0.1979
     89  CA        15.3860   24.3520    0.6460 C.3    89  GLU89       0.1602
     90  C         14.5560   23.1950    0.0850 C.2    89  GLU89       0.2287
     91  O         15.0460   22.4090   -0.7230 O.2    89  GLU89      -0.2864
     92  CB        16.1100   23.9230    1.9380 C.3    89  GLU89       0.0415
     93  CG        17.2340   24.8810    2.4010 C.3    89  GLU89       0.1163
     94  CD        18.5790   24.6510    1.6960 C.2    89  GLU89       0.3649
     95  OE1       18.6840   23.7240    0.8520 O.co2  89  GLU89      -0.2457
     96  OE2       19.5440   25.3990    1.9960 O.co2  89  GLU89      -0.2457
     97  N         15.8070   21.6950   -3.3490 N.3    93  GLU93      -0.1245
     98  CA        16.2700   20.3070   -3.3660 C.3    93  GLU93       0.1567
     99  C         15.3470   19.2580   -3.9970 C.2    93  GLU93       0.2260
    100  O         15.8170   18.3840   -4.7330 O.2    93  GLU93      -0.2867
    101  CB        16.6690   19.8650   -1.9470 C.3    93  GLU93       0.0388
    102  CG        17.8110   20.6810   -1.3150 C.3    93  GLU93       0.1160
    103  CD        18.4650   19.9710   -0.1310 C.2    93  GLU93       0.3649
    104  OE1       17.8110   19.0880    0.4680 O.co2  93  GLU93      -0.2457
    105  OE2       19.6290   20.2960    0.2140 O.co2  93  GLU93      -0.2457
    106  N         24.5880   23.2820   -7.2940 N.3   135  HIS135     -0.1226
    107  CA        26.0410   23.3780   -7.2570 C.3   135  HIS135      0.1752
    108  C         26.6270   22.3460   -6.2830 C.2   135  HIS135      0.2596
    109  O         25.9430   21.9000   -5.3590 O.2   135  HIS135     -0.2718
    110  CB        26.4670   24.7980   -6.8120 C.3   135  HIS135      0.0759
    111  CG        26.3150   25.8540   -7.8690 C.ar  135  HIS135      0.0818
    112  ND1       25.0980   26.1980   -8.4180 N.ar  135  HIS135     -0.2268
    113  CD2       27.2360   26.6440   -8.4730 C.ar  135  HIS135      0.1154
    114  CE1       25.2760   27.1510   -9.3170 C.ar  135  HIS135      0.1986
    115  NE2       26.5640   27.4390   -9.3690 N.ar  135  HIS135     -0.2212
    116  N         27.8830   21.9610   -6.5050 N.am  136  HIS136     -0.1961
    117  CA        28.5780   21.0190   -5.6210 C.3   136  HIS136      0.1787
    118  C         27.8750   19.7020   -5.3170 C.2   136  HIS136      0.2620
    119  O         27.3880   19.0040   -6.2020 O.2   136  HIS136     -0.2715
    120  CB        28.8830   21.7090   -4.2920 C.3   136  HIS136      0.0785
    121  CG        29.6830   22.9630   -4.4370 C.ar  136  HIS136      0.0821
    122  ND1       30.9130   22.9910   -5.0580 N.ar  136  HIS136     -0.2267
    123  CD2       29.4420   24.2300   -4.0270 C.ar  136  HIS136      0.1154
    124  CE1       31.3970   24.2190   -5.0210 C.ar  136  HIS136      0.1986
    125  NE2       30.5230   24.9910   -4.4000 N.ar  136  HIS136     -0.2212
    126  N         27.8460   19.3710   -4.0330 N.am  137  GLU137     -0.1963
    127  CA        27.2240   18.1500   -3.5520 C.3   137  GLU137      0.1733
    128  C         25.7970   18.0010   -4.0440 C.2   137  GLU137      0.2616
    129  O         25.3210   16.8870   -4.2750 O.2   137  GLU137     -0.2715
    130  CB        27.2300   18.1520   -2.0350 C.3   137  GLU137      0.0429
    131  CG        28.5610   18.5680   -1.4670 C.3   137  GLU137      0.1163
    132  CD        29.0840   17.5450   -0.5000 C.2   137  GLU137      0.3649
    133  OE1       28.4130   17.2980    0.5300 O.co2 137  GLU137     -0.2457
    134  OE2       30.1580   16.9740   -0.7760 O.co2 137  GLU137     -0.2457
    135  N         25.1130   19.1290   -4.1970 N.am  138  GLU138     -0.1977
    136  CA        23.7290   19.1290   -4.6540 C.3   138  GLU138      0.1602
    137  C         23.5730   18.8560   -6.1560 C.2   138  GLU138      0.2287
    138  O         22.5440   18.3340   -6.5820 O.2   138  GLU138     -0.2864
    139  CB        23.0710   20.4630   -4.3020 C.3   138  GLU138      0.0415
    140  CG        22.9710   20.7530   -2.8090 C.3   138  GLU138      0.1163
    141  CD        22.0490   21.9170   -2.5150 C.2   138  GLU138      0.3649
    142  OE1       21.3470   22.3710   -3.4490 O.co2 138  GLU138     -0.2457
    143  OE2       22.0100   22.3680   -1.3490 O.co2 138  GLU138     -0.2457
@<TRIPOS>BOND
     1   115   114   ar
     2   115   113   ar
     3   114   112   ar
     4   113   111   ar
     5   112   111   ar
     6   111   110    1
     7   106   107    1
     8   107   110    1
     9   107   108    1
    10   138   137    2
    11   116   108   am
    12   116   117    1
    13   108   109    2
    14   119   118    2
    15   137   136    1
    16   117   118    1
    17   117   120    1
    18   118   126   am
    19   122   124   ar
    20   122   121   ar
    21   124   125   ar
    22   100    99    2
    23   136   139    1
    24   136   135    1
    25   121   120    1
    26   121   123   ar
    27   125   123   ar
    28   139   140    1
    29   129   128    2
    30   135   128   am
    31   128   127    1
    32   126   127    1
    33    99    98    1
    34   127   130    1
    35   142   141   ar
    36    98    97    1
    37    98   101    1
    38   140   141    1
    39   141   143   ar
    40   130   131    1
    41   101   102    1
    42   131   132    1
    43   102   103    1
    44    26    25    1
    45    26    27    1
    46    26    29    1
    47    80    79    2
    48    27    28    2
    49   134   132   ar
    50    91    90    2
    51   132   133   ar
    52    30    29    1
    53    30    31    1
    54    33    31   am
    55    82    83    1
    56    82    81    1
    57   103   105   ar
    58   103   104   ar
    59    79    78    1
    60    79    88   am
    61    90    89    1
    62    31    32    2
    63    78    81    1
    64    78    77    1
    65    83    84    1
    66    89    88    1
    67    89    92    1
    68    95    94   ar
    69    84    85    2
    70    34    35    1
    71    94    96   ar
    72    94    93    1
    73    92    93    1
    74    85    86    1
    75    85    87    1
    76    35    36    1
    77    35    38    1
    78    36    37    2
    79    55    54    2
    80    52    53    1
    81    38    39    1
    82    39    40    1
    83    40    41    1
    84    43    42    1
    85    41    42    2
    86    42    44    1
    87    54    53    1
    88    54    57   am
    89    76    74   ar
    90    53    56    1
    91    75    74   ar
    92    45    46    1
    93    58    57    1
    94    58    59    1
    95    74    73    1
    96     5     2    1
    97    72    71    2
    98    61    59   am
    99    61    62    1
   100    59    60    2
   101    46    47    1
   102    46    49    1
   103    47    48    2
   104    73    70    1
   105    67    66    1
   106    64    63    2
   107    71    70    1
   108    12    10    1
   109    66    65    1
   110    66    68    1
   111    50    49    1
   112     2     3    1
   113     2     1    1
   114    65    62    1
   115    62    63    1
   116    49    51    1
   117    70    69    1
   118     4     3    2
   119     3     6   am
   120    13    11    1
   121    10    11    1
   122    10     7    1
   123     6     7    1
   124     7     8    1
   125     8     9    2
   126     8    14   am
   127    23    21   ar
   128    23    24   ar
   129    14    15    1
   130    21    19   ar
   131    24    22   ar
   132    19    18    1
   133    19    20   ar
   134    17    16    2
   135    15    18    1
   136    15    16    1
   137    22    20   ar
