@<TRIPOS>MOLECULE
tmp/1mr3A00.pdb
 103 98 0 0 0
SMALL
GASTEIGER

@<TRIPOS>ATOM
      1  N         11.1610   22.2480   -1.8240 N.3    22  ASP22      -0.1225
      2  CA         9.7740   22.1740   -2.2500 C.3    22  ASP22       0.1805
      3  C          9.7040   20.9790   -3.1970 C.2    22  ASP22       0.2598
      4  O         10.6520   20.7210   -3.9430 O.2    22  ASP22      -0.2718
      5  CB         9.3890   23.4430   -3.0000 C.3    22  ASP22       0.1424
      6  CG        10.4070   23.8090   -4.0610 C.2    22  ASP22       0.3668
      7  OD1       11.5490   24.1460   -3.6970 O.co2  22  ASP22      -0.2456
      8  OD2       10.0740   23.7480   -5.2580 O.co2  22  ASP22      -0.2456
      9  N          8.5990   20.2430   -3.1520 N.am   23  GLY23      -0.1942
     10  CA         8.4330   19.0930   -4.0220 C.3    23  GLY23       0.2014
     11  C          8.9270   17.7770   -3.4530 C.2    23  GLY23       0.2639
     12  O          8.7090   16.7200   -4.0450 O.2    23  GLY23      -0.2714
     13  N          9.5870   17.8230   -2.3010 N.am   24  ALA24      -0.1963
     14  CA        10.1060   16.5970   -1.7040 C.3    24  ALA24       0.1728
     15  C          9.0010   15.6520   -1.2380 C.2    24  ALA24       0.2617
     16  O          9.1830   14.4310   -1.2560 O.2    24  ALA24      -0.2715
     17  CB        11.0430   16.9360   -0.5440 C.3    24  ALA24       0.0334
     18  N          7.8670   16.2230   -0.8240 N.am   25  GLY25      -0.1940
     19  CA         6.7300   15.4330   -0.3660 C.3    25  GLY25       0.2014
     20  C          6.4000   15.5680    1.1140 C.2    25  GLY25       0.2639
     21  O          5.7460   14.6890    1.6890 O.2    25  GLY25      -0.2714
     22  N          6.8280   16.6690    1.7230 N.am   26  LYS26      -0.1963
     23  CA         6.5960   16.9030    3.1490 C.3    26  LYS26       0.1728
     24  C          5.1250   17.0640    3.5220 C.2    26  LYS26       0.2617
     25  O          4.6560   16.4700    4.4970 O.2    26  LYS26      -0.2715
     26  CB         7.3690   18.1410    3.6030 C.3    26  LYS26       0.0311
     27  CG         8.8490   18.0960    3.2710 C.3    26  LYS26       0.0038
     28  CD         9.5780   19.3410    3.7640 C.3    26  LYS26       0.0206
     29  CE         9.0460   20.6180    3.1220 C.3    26  LYS26       0.1093
     30  NZ         9.1640   20.6070    1.6330 N.3    26  LYS26      -0.1314
     31  N          4.3980   17.8620    2.7520 N.am   27  THR27      -0.1937
     32  CA         2.9880   18.0870    3.0360 C.3    27  THR27       0.2028
     33  C          2.2430   16.7660    2.8920 C.2    27  THR27       0.2642
     34  O          1.3510   16.4610    3.6840 O.2    27  THR27      -0.2714
     35  CB         2.4000   19.1440    2.0940 C.3    27  THR27       0.1808
     36  OG1        2.9610   20.4120    2.4350 O.3    27  THR27      -0.2208
     37  CG2        0.8890   19.2210    2.2310 C.3    27  THR27       0.0379
     38  N          2.6290   15.9720    1.8950 N.am   28  THR28      -0.1950
     39  CA         2.0000   14.6770    1.6720 C.3    28  THR28       0.1897
     40  C          2.2210   13.8120    2.9190 C.2    28  THR28       0.2313
     41  O          1.3120   13.1210    3.3800 O.2    28  THR28      -0.2863
     42  CB         2.5990   13.9670    0.4320 C.3    28  THR28       0.1794
     43  OG1        2.3850   14.7740   -0.7320 O.3    28  THR28      -0.2208
     44  CG2        1.9410   12.6200    0.2190 C.3    28  THR28       0.0378
     45  N          9.1770   24.7680    3.6750 N.3    63  ASP63      -0.1239
     46  CA        10.0460   24.5060    2.5370 C.3    63  ASP63       0.1674
     47  C         11.3290   25.3060    2.5930 C.2    63  ASP63       0.2266
     48  O         11.3160   26.4920    2.9150 O.2    63  ASP63      -0.2867
     49  CB         9.3310   24.8360    1.2250 C.3    63  ASP63       0.1410
     50  CG         8.0350   24.0850    1.0630 C.2    63  ASP63       0.3668
     51  OD1        7.9340   22.9490    1.5710 O.co2  63  ASP63      -0.2456
     52  OD2        7.1190   24.6290    0.4100 O.co2  63  ASP63      -0.2456
     53  N         12.3700    9.8990   -0.0120 N.3   122  ASN122     -0.1225
     54  CA        10.9980    9.7610   -0.4970 C.3   122  ASN122      0.1785
     55  C         10.8200    9.4830   -1.9920 C.2   122  ASN122      0.2597
     56  O         11.7410    9.6610   -2.7870 O.2   122  ASN122     -0.2718
     57  CB        10.2090   11.0100   -0.0710 C.3   122  ASN122      0.1169
     58  CG         8.7100   10.8180   -0.1690 C.2   122  ASN122      0.2627
     59  OD1        8.1770    9.7960    0.2550 O.2   122  ASN122     -0.2716
     60  ND2        8.0200   11.8090   -0.7150 N.am  122  ASN122     -0.0877
     61  N          9.6160    9.0340   -2.3510 N.am  123  LYS123     -0.1980
     62  CA         9.2460    8.6900   -3.7270 C.3   123  LYS123      0.1596
     63  C         10.0030    7.4500   -4.2040 C.2   123  LYS123      0.2287
     64  O         10.3390    7.3200   -5.3810 O.2   123  LYS123     -0.2864
     65  CB         9.4940    9.8660   -4.6810 C.3   123  LYS123      0.0298
     66  CG         8.9050   11.1940   -4.1890 C.3   123  LYS123      0.0038
     67  CD         8.7890   12.2260   -5.3020 C.3   123  LYS123      0.0206
     68  CE         8.2740   13.5560   -4.7560 C.3   123  LYS123      0.1093
     69  NZ         8.1780   14.5930   -5.8330 N.3   123  LYS123     -0.1314
     70  N          8.8520    4.6670   -4.6250 N.3   125  ASP125     -0.1225
     71  CA         7.9540    3.8450   -5.4320 C.3   125  ASP125      0.1805
     72  C          8.2910    3.9760   -6.9140 C.2   125  ASP125      0.2597
     73  O          7.8510    3.1670   -7.7330 O.2   125  ASP125     -0.2718
     74  CB         6.4970    4.2640   -5.1990 C.3   125  ASP125      0.1424
     75  CG         6.2750    5.7520   -5.4150 C.2   125  ASP125      0.3668
     76  OD1        5.4740    6.1190   -6.2990 O.co2 125  ASP125     -0.2456
     77  OD2        6.9060    6.5570   -4.7000 O.co2 125  ASP125     -0.2456
     78  N          9.0650    5.0010   -7.2560 N.am  126  LEU126     -0.1979
     79  CA         9.4640    5.2150   -8.6420 C.3   126  LEU126      0.1596
     80  C         10.7580    4.4300   -8.8780 C.2   126  LEU126      0.2287
     81  O         11.7800    4.7110   -8.2620 O.2   126  LEU126     -0.2864
     82  CB         9.6750    6.7110   -8.8990 C.3   126  LEU126      0.0297
     83  CG         8.4560    7.6070   -8.6270 C.3   126  LEU126      0.0022
     84  CD1        8.8160    9.0640   -8.8670 C.3   126  LEU126      0.0001
     85  CD2        7.2890    7.1930   -9.5280 C.3   126  LEU126      0.0001
     86  N          7.5270    6.1650    0.8400 N.3   155  CYS155     -0.1221
     87  CA         6.6000    6.4800   -0.2390 C.3   155  CYS155      0.1808
     88  C          5.4830    7.1780    0.5230 C.2   155  CYS155      0.2601
     89  O          4.6310    6.5310    1.1300 O.2   155  CYS155     -0.2717
     90  CB         6.0450    5.2430   -0.9420 C.3   155  CYS155      0.0970
     91  SG         4.7410    5.7190   -2.1320 S.3   155  CYS155     -0.0800
     92  N          5.5120    8.5050    0.5150 N.am  156  ALA156     -0.1965
     93  CA         4.5270    9.2930    1.2390 C.3   156  ALA156      0.1728
     94  C          3.1100    9.0740    0.7270 C.2   156  ALA156      0.2616
     95  O          2.1350    9.2700    1.4610 O.2   156  ALA156     -0.2715
     96  CB         4.8990   10.7770    1.1670 C.3   156  ALA156      0.0334
     97  N          2.9940    8.6620   -0.5280 N.am  157  THR157     -0.1951
     98  CA         1.6850    8.4250   -1.1210 C.3   157  THR157      0.1897
     99  C          0.9870    7.2570   -0.4410 C.2   157  THR157      0.2313
    100  O         -0.2010    7.3300   -0.1270 O.2   157  THR157     -0.2863
    101  CB         1.7920    8.0990   -2.6200 C.3   157  THR157      0.1794
    102  OG1        2.6280    9.0620   -3.2700 O.3   157  THR157     -0.2208
    103  CG2        0.4060    8.1290   -3.2590 C.3   157  THR157      0.0378
@<TRIPOS>BOND
     1    85    83    1
     2    82    79    1
     3    82    83    1
     4    80    79    1
     5    80    81    2
     6    84    83    1
     7    79    78    1
     8    73    72    2
     9    78    72   am
    10    72    71    1
    11    76    75   ar
    12    69    68    1
    13    71    74    1
    14    71    70    1
    15    75    74    1
    16    75    77   ar
    17    64    63    2
    18    67    68    1
    19    67    66    1
    20     8     6   ar
    21    65    66    1
    22    65    62    1
    23    63    62    1
    24     6     7   ar
    25     6     5    1
    26    12    11    2
    27    10    11    1
    28    10     9    1
    29     4     3    2
    30    62    61    1
    31    11    13   am
    32   102   101    1
    33   103   101    1
    34     3     9   am
    35     3     2    1
    36     5     2    1
    37    56    55    2
    38   101    98    1
    39    61    55   am
    40    13    14    1
    41     2     1    1
    42    91    90    1
    43    55    54    1
    44    14    15    1
    45    14    17    1
    46    16    15    2
    47    15    18   am
    48    98    97    1
    49    98    99    1
    50    90    87    1
    51    18    19    1
    52    43    42    1
    53    60    58   am
    54    97    94   am
    55    54    57    1
    56    54    53    1
    57    99   100    2
    58    19    20    1
    59    87    88    1
    60    87    86    1
    61    58    57    1
    62    58    59    2
    63    44    42    1
    64    52    50   ar
    65    42    39    1
    66    92    88   am
    67    92    93    1
    68    88    89    2
    69    94    93    1
    70    94    95    2
    71    50    49    1
    72    50    51   ar
    73    20    21    2
    74    20    22   am
    75    96    93    1
    76    49    46    1
    77    30    29    1
    78    39    38    1
    79    39    40    1
    80    22    23    1
    81    38    33   am
    82    35    37    1
    83    35    36    1
    84    35    32    1
    85    46    47    1
    86    46    45    1
    87    47    48    2
    88    31    32    1
    89    31    24   am
    90    33    32    1
    91    33    34    2
    92    40    41    2
    93    29    28    1
    94    23    24    1
    95    23    26    1
    96    27    26    1
    97    27    28    1
    98    24    25    2
