@<TRIPOS>MOLECULE
tmp/1mraA00.pdb
 155 143 0 0 0
SMALL
GASTEIGER

@<TRIPOS>ATOM
      1  N         36.7980    3.2750   23.4380 N.3    20  VAL20      -0.1245
      2  CA        35.5070    2.9070   22.8770 C.3    20  VAL20       0.1561
      3  C         35.1340    1.4540   22.8520 C.2    20  VAL20       0.2260
      4  O         34.8800    0.8790   21.8000 O.2    20  VAL20      -0.2867
      5  CB        35.0690    3.6460   21.6210 C.3    20  VAL20       0.0252
      6  CG1       33.8420    4.5060   21.9260 C.3    20  VAL20       0.0019
      7  CG2       36.2100    4.4980   21.0790 C.3    20  VAL20       0.0019
      8  N         33.0550   -1.0570   22.4490 N.3    22  THR22      -0.1218
      9  CA        31.7750   -0.9840   21.7770 C.3    22  THR22       0.1862
     10  C         30.8800   -2.2230   21.9310 C.2    22  THR22       0.2287
     11  O         31.3470   -3.3350   22.1750 O.2    22  THR22      -0.2866
     12  CB        31.9240   -0.5100   20.3130 C.3    22  THR22       0.1770
     13  OG1       32.5850   -1.4720   19.5110 O.3    22  THR22      -0.2211
     14  CG2       32.5700    0.8720   20.2070 C.3    22  THR22       0.0375
     15  N         38.0710   -0.5530   20.9810 N.3    27  VAL27      -0.1245
     16  CA        39.1520    0.2420   20.3360 C.3    27  VAL27       0.1561
     17  C         40.1920    0.8950   21.2670 C.2    27  VAL27       0.2260
     18  O         39.8590    1.8620   21.8970 O.2    27  VAL27      -0.2867
     19  CB        38.4680    1.3810   19.5610 C.3    27  VAL27       0.0252
     20  CG1       39.4020    1.9660   18.5100 C.3    27  VAL27       0.0019
     21  CG2       37.1630    0.9080   18.9170 C.3    27  VAL27       0.0019
     22  N         38.7650    8.5670    9.5760 N.3    50  PHE50      -0.1241
     23  CA        38.8080    7.5780   10.6210 C.3    50  PHE50       0.1605
     24  C         38.6870    6.2310    9.9520 C.2    50  PHE50       0.2264
     25  O         37.7680    6.0210    9.1750 O.2    50  PHE50      -0.2867
     26  CB        37.6500    7.7720   11.6180 C.3    50  PHE50       0.0534
     27  CG        37.6090    6.7120   12.7160 C.ar   50  PHE50      -0.0203
     28  CD1       38.7890    6.2300   13.2770 C.ar   50  PHE50      -0.0042
     29  CD2       36.4000    6.2260   13.2130 C.ar   50  PHE50      -0.0042
     30  CE1       38.7830    5.2750   14.2920 C.ar   50  PHE50      -0.0003
     31  CE2       36.3660    5.2630   14.2260 C.ar   50  PHE50      -0.0003
     32  CZ        37.5640    4.7970   14.7690 C.ar   50  PHE50      -0.0000
     33  N         38.2780    3.2770   11.6360 N.3    52  TYR52      -0.1241
     34  CA        37.6080    2.2510   12.4700 C.3    52  TYR52       0.1605
     35  C         38.5550    1.1760   12.9720 C.2    52  TYR52       0.2264
     36  O         38.7120    0.9980   14.1710 O.2    52  TYR52      -0.2867
     37  CB        36.3360    1.6220   11.8300 C.3    52  TYR52       0.0534
     38  CG        35.3540    2.6770   11.3390 C.ar   52  TYR52      -0.0201
     39  CD1       35.5820    3.3300   10.1280 C.ar   52  TYR52      -0.0009
     40  CD2       34.2940    3.1200   12.1350 C.ar   52  TYR52      -0.0009
     41  CE1       34.7280    4.3380    9.6810 C.ar   52  TYR52       0.0417
     42  CE2       33.4430    4.1450   11.7170 C.ar   52  TYR52       0.0417
     43  CZ        33.6570    4.7460   10.4770 C.ar   52  TYR52       0.1957
     44  OH        32.8080    5.7390   10.0390 O.3    52  TYR52      -0.2866
     45  N         30.3690   11.2170   24.6690 N.3   137  SER137     -0.1202
     46  CA        30.2760    9.8730   24.1800 C.3   137  SER137      0.2020
     47  C         31.2270    8.8700   24.8310 C.2   137  SER137      0.2618
     48  O         32.4190    8.8750   24.5720 O.2   137  SER137     -0.2717
     49  CB        30.4400    9.8560   22.6640 C.3   137  SER137      0.2103
     50  OG        29.7340    8.7600   22.1190 O.3   137  SER137     -0.2182
     51  N         30.6780    7.9210   25.5950 N.am  138  HIS138     -0.1975
     52  CA        31.5070    6.8960   26.2290 C.3   138  HIS138      0.1656
     53  C         31.4100    5.5520   25.5150 C.2   138  HIS138      0.2291
     54  O         30.9160    5.4690   24.3870 O.2   138  HIS138     -0.2864
     55  CB        31.2960    6.7910   27.7590 C.3   138  HIS138      0.0771
     56  CG        31.3230    8.1420   28.4210 C.ar  138  HIS138      0.0820
     57  ND1       30.4060    8.4930   29.3980 N.ar  138  HIS138     -0.2267
     58  CD2       32.1220    9.2230   28.1870 C.ar  138  HIS138      0.1154
     59  CE1       30.6640    9.7530   29.7370 C.ar  138  HIS138      0.1986
     60  NE2       31.6870   10.2200   29.0290 N.ar  138  HIS138     -0.2212
     61  N         26.4730    9.4370   26.4000 N.3   162  LYS162     -0.1245
     62  CA        26.0190    8.2850   25.6720 C.3   162  LYS162      0.1561
     63  C         26.8190    7.0830   26.0980 C.2   162  LYS162      0.2260
     64  O         28.0340    7.1370   26.1370 O.2   162  LYS162     -0.2867
     65  CB        26.1090    8.4130   24.1750 C.3   162  LYS162      0.0271
     66  CG        25.7310    7.0720   23.5690 C.3   162  LYS162      0.0035
     67  CD        25.4550    7.1270   22.0910 C.3   162  LYS162      0.0206
     68  CE        26.7310    7.0480   21.2750 C.3   162  LYS162      0.1093
     69  NZ        26.6560    7.8320   20.0290 N.3   162  LYS162     -0.1314
     70  N         27.4810    2.6570   25.8730 N.3   164  LYS164     -0.1245
     71  CA        27.3030    1.4350   25.1310 C.3   164  LYS164      0.1561
     72  C         26.8150    0.2840   26.0040 C.2   164  LYS164      0.2260
     73  O         27.4680   -0.1130   26.9810 O.2   164  LYS164     -0.2867
     74  CB        28.5980    0.9980   24.4920 C.3   164  LYS164      0.0271
     75  CG        28.4060    0.4360   23.0940 C.3   164  LYS164      0.0035
     76  CD        29.4830    0.9190   22.1390 C.3   164  LYS164      0.0206
     77  CE        30.1710    2.1720   22.6480 C.3   164  LYS164      0.1093
     78  NZ        29.2180    3.2510   22.9510 N.3   164  LYS164     -0.1314
     79  N         23.5940    2.8540   23.1680 N.3   193  ASP193     -0.1239
     80  CA        24.0150    2.3440   21.8910 C.3   193  ASP193      0.1674
     81  C         24.2570    0.8700   21.9290 C.2   193  ASP193      0.2266
     82  O         25.1810    0.3970   22.5770 O.2   193  ASP193     -0.2867
     83  CB        25.2800    3.0910   21.4330 C.3   193  ASP193      0.1410
     84  CG        25.6850    2.8890   20.0080 C.2   193  ASP193      0.3668
     85  OD1       25.1400    1.8390   19.4560 O.co2 193  ASP193     -0.2456
     86  OD2       26.4380    3.6400   19.4340 O.co2 193  ASP193     -0.2456
     87  N         25.0240   -0.8030   19.2420 N.3   195  ASN195     -0.1240
     88  CA        26.0410   -1.1400   18.2410 C.3   195  ASN195      0.1653
     89  C         25.5810   -2.2670   17.3120 C.2   195  ASN195      0.2266
     90  O         26.3650   -3.2160   17.1400 O.2   195  ASN195     -0.2867
     91  CB        27.2930   -1.6750   18.9320 C.3   195  ASN195      0.1155
     92  CG        28.4540   -0.6900   18.9440 C.2   195  ASN195      0.2627
     93  OD1       29.4280   -0.9070   19.6620 O.2   195  ASN195     -0.2716
     94  ND2       28.4120    0.3880   18.1860 N.am  195  ASN195     -0.0877
     95  N         20.0460    3.5910   19.9980 N.3   219  GLU219     -0.1245
     96  CA        20.8040    3.6860   18.7670 C.3   219  GLU219      0.1567
     97  C         21.3300    2.3680   18.2470 C.2   219  GLU219      0.2260
     98  O         21.8470    1.5340   18.9950 O.2   219  GLU219     -0.2867
     99  CB        21.8870    4.7850   18.8500 C.3   219  GLU219      0.0388
    100  CG        23.0490    4.7110   17.8300 C.3   219  GLU219      0.1160
    101  CD        24.0770    5.7810   18.1170 C.2   219  GLU219      0.3649
    102  OE1       23.8820    6.6920   18.8940 O.co2 219  GLU219     -0.2457
    103  OE2       25.2100    5.6340   17.4840 O.co2 219  GLU219     -0.2457
    104  N         24.7410    6.2460   11.3520 N.3   245  GLU245     -0.1245
    105  CA        26.1870    6.4350   11.3340 C.3   245  GLU245      0.1567
    106  C         26.8690    5.6970   10.1880 C.2   245  GLU245      0.2260
    107  O         27.9600    6.0610    9.7470 O.2   245  GLU245     -0.2867
    108  CB        26.8710    6.1840   12.7010 C.3   245  GLU245      0.0388
    109  CG        26.5130    4.8240   13.3370 C.3   245  GLU245      0.1160
    110  CD        27.1020    4.6330   14.7130 C.2   245  GLU245      0.3649
    111  OE1       26.5930    5.0950   15.7200 O.co2 245  GLU245     -0.2457
    112  OE2       28.2000    3.8970   14.7170 O.co2 245  GLU245     -0.2457
    113  N         27.7710   12.2550   14.0090 N.3   295  HIS295     -0.1226
    114  CA        28.5690   11.1070   14.4110 C.3   295  HIS295      0.1752
    115  C         30.0390   11.3550   14.1220 C.2   295  HIS295      0.2595
    116  O         30.4240   11.4560   12.9580 O.2   295  HIS295     -0.2718
    117  CB        28.0970    9.7720   13.8090 C.3   295  HIS295      0.0759
    118  CG        28.9450    8.6030   14.2600 C.ar  295  HIS295      0.0818
    119  ND1       29.6330    7.7910   13.3580 N.ar  295  HIS295     -0.2268
    120  CD2       29.2270    8.1530   15.5100 C.ar  295  HIS295      0.1154
    121  CE1       30.2780    6.8780   14.0710 C.ar  295  HIS295      0.1986
    122  NE2       30.0450    7.0570   15.3600 N.ar  295  HIS295     -0.2212
    123  N         30.8470   11.4470   15.2050 N.am  296  LEU296     -0.1980
    124  CA        32.2750   11.7500   15.1240 C.3   296  LEU296      0.1596
    125  C         32.4860   13.0800   14.3960 C.2   296  LEU296      0.2287
    126  O         31.5180   13.7700   14.0630 O.2   296  LEU296     -0.2864
    127  CB        33.1230   10.6030   14.5140 C.3   296  LEU296      0.0297
    128  CG        32.7470    9.1910   14.9990 C.3   296  LEU296      0.0022
    129  CD1       33.3650    8.1370   14.0840 C.3   296  LEU296      0.0001
    130  CD2       33.2710    8.9560   16.4110 C.3   296  LEU296      0.0001
    131  N         27.9500   15.0940   18.8940 N.3   315  GLU315     -0.1245
    132  CA        28.5590   14.0580   19.6940 C.3   315  GLU315      0.1567
    133  C         29.9970   14.3700   19.9920 C.2   315  GLU315      0.2260
    134  O         30.8110   14.5560   19.0850 O.2   315  GLU315     -0.2867
    135  CB        28.4650   12.6800   19.0360 C.3   315  GLU315      0.0388
    136  CG        29.3180   11.6000   19.7230 C.3   315  GLU315      0.1160
    137  CD        29.3390   10.2980   18.9540 C.2   315  GLU315      0.3649
    138  OE1       29.4140   10.4700   17.6590 O.co2 315  GLU315     -0.2457
    139  OE2       29.3070    9.2000   19.4750 O.co2 315  GLU315     -0.2457
    140  N         33.3570   13.1450   20.9530 N.3   317  LEU317     -0.1245
    141  CA        34.1940   11.9880   20.8110 C.3   317  LEU317      0.1561
    142  C         35.4100   12.4090   19.9900 C.2   317  LEU317      0.2260
    143  O         35.4240   12.3250   18.7750 O.2   317  LEU317     -0.2867
    144  CB        33.4520   10.8060   20.1500 C.3   317  LEU317      0.0270
    145  CG        33.9780    9.4660   20.6550 C.3   317  LEU317      0.0019
    146  CD1       33.1010    8.3240   20.1590 C.3   317  LEU317      0.0001
    147  CD2       35.4050    9.2620   20.1710 C.3   317  LEU317      0.0001
    148  N         38.5540   12.0750   18.3720 N.3   319  LEU319     -0.1245
    149  CA        39.4740   11.0820   17.8340 C.3   319  LEU319      0.1561
    150  C         40.8540   11.6670   17.6160 C.2   319  LEU319      0.2260
    151  O         41.8780   11.0340   17.8870 O.2   319  LEU319     -0.2867
    152  CB        39.0340   10.4980   16.4620 C.3   319  LEU319      0.0270
    153  CG        37.5900   10.0240   16.3440 C.3   319  LEU319      0.0019
    154  CD1       37.1760    9.9460   14.8600 C.3   319  LEU319      0.0001
    155  CD2       37.4540    8.6580   16.9910 C.3   319  LEU319      0.0001
@<TRIPOS>BOND
     1    25    24    2
     2    22    23    1
     3    41    39   ar
     4    41    43   ar
     5   107   106    2
     6    24    23    1
     7    44    43    1
     8    39    38   ar
     9   106   105    1
    10    43    42   ar
    11    23    26    1
    12   105   104    1
    13   105   108    1
    14    38    37    1
    15    38    40   ar
    16    26    27    1
    17    33    34    1
    18    42    40   ar
    19    37    34    1
    20    34    35    1
    21   108   109    1
    22    27    29   ar
    23    27    28   ar
    24   116   115    2
    25    35    36    2
    26    29    31   ar
    27    28    30   ar
    28   109   110    1
    29   119   121   ar
    30   119   118   ar
    31   117   118    1
    32   117   114    1
    33   113   114    1
    34   126   125    2
    35   121   122   ar
    36   129   128    1
    37   115   114    1
    38   115   123   am
    39    31    32   ar
    40   118   120   ar
    41    30    32   ar
    42   125   124    1
    43   127   128    1
    44   127   124    1
    45   110   112   ar
    46   110   111   ar
    47   154   153    1
    48   128   130    1
    49   124   123    1
    50   122   120   ar
    51   153   152    1
    52   153   155    1
    53   152   149    1
    54    90    89    2
    55    89    88    1
    56   103   101   ar
    57   150   149    1
    58   150   151    2
    59   138   137   ar
    60   100   101    1
    61   100    99    1
    62   149   148    1
    63   101   102   ar
    64    94    92   am
    65    88    91    1
    66    88    87    1
    67    97    96    1
    68    97    98    2
    69    20    19    1
    70    96    99    1
    71    96    95    1
    72   143   142    2
    73   131   132    1
    74    21    19    1
    75    91    92    1
    76    92    93    2
    77   137   139   ar
    78   137   136    1
    79   135   132    1
    80   135   136    1
    81   134   133    2
    82    86    84   ar
    83    85    84   ar
    84    13    12    1
    85    19    16    1
    86   132   133    1
    87   142   141    1
    88    84    83    1
    89    69    68    1
    90   144   145    1
    91   144   141    1
    92   146   145    1
    93   147   145    1
    94    14    12    1
    95    12     9    1
    96    16    15    1
    97    16    17    1
    98   141   140    1
    99     7     5    1
   100    17    18    2
   101    68    67    1
   102    83    80    1
   103     5     6    1
   104     5     2    1
   105     9    10    1
   106     9     8    1
   107     4     3    2
   108    80    81    1
   109    80    79    1
   110    81    82    2
   111    10    11    2
   112    67    66    1
   113    50    49    1
   114    76    77    1
   115    76    75    1
   116    77    78    1
   117    49    46    1
   118     3     2    1
   119     2     1    1
   120    75    74    1
   121    66    65    1
   122    65    62    1
   123    46    45    1
   124    46    47    1
   125    54    53    2
   126    74    71    1
   127    48    47    2
   128    47    51   am
   129    71    70    1
   130    71    72    1
   131    53    52    1
   132    51    52    1
   133    62    63    1
   134    62    61    1
   135    72    73    2
   136    63    64    2
   137    52    55    1
   138    55    56    1
   139    58    56   ar
   140    58    60   ar
   141    56    57   ar
   142    60    59   ar
   143    57    59   ar
