@<TRIPOS>MOLECULE
tmp/1mreA00.pdb
 88 82 0 0 0
SMALL
GASTEIGER

@<TRIPOS>ATOM
      1  N        -21.3760   25.7820   51.4300 N.3    31  HIS31      -0.1241
      2  CA       -22.1240   24.8560   50.6100 C.3    31  HIS31       0.1621
      3  C        -23.4520   24.5080   51.2770 C.2    31  HIS31       0.2264
      4  O        -23.5810   24.5720   52.5100 O.2    31  HIS31      -0.2867
      5  CB       -21.2930   23.6030   50.4330 C.3    31  HIS31       0.0745
      6  CG       -21.7390   22.7430   49.3030 C.ar   31  HIS31       0.0817
      7  ND1      -22.6800   21.7460   49.4490 N.ar   31  HIS31      -0.2268
      8  CD2      -21.3740   22.7260   48.0010 C.ar   31  HIS31       0.1154
      9  CE1      -22.8790   21.1550   48.2870 C.ar   31  HIS31       0.1986
     10  NE2      -22.1000   21.7310   47.3900 N.ar   31  HIS31      -0.2212
     11  N        -24.4330   21.8650   51.9610 N.3    33  ASN33      -0.1240
     12  CA       -24.1970   20.7170   52.8470 C.3    33  ASN33       0.1653
     13  C        -23.4560   21.1200   54.1270 C.2    33  ASN33       0.2266
     14  O        -22.9260   20.2670   54.8350 O.2    33  ASN33      -0.2867
     15  CB       -23.4740   19.5500   52.1290 C.3    33  ASN33       0.1155
     16  CG       -21.9940   19.8300   51.8220 C.2    33  ASN33       0.2627
     17  OD1      -21.4730   20.9010   52.0980 O.2    33  ASN33      -0.2716
     18  ND2      -21.3340   18.8680   51.2000 N.am   33  ASN33      -0.0877
     19  N        -20.5290   22.5230   54.7160 N.3    35  ASN35      -0.1240
     20  CA       -19.0910   22.7580   54.5740 C.3    35  ASN35       0.1653
     21  C        -18.7090   24.0100   53.7890 C.2    35  ASN35       0.2266
     22  O        -19.5040   24.5270   53.0190 O.2    35  ASN35      -0.2867
     23  CB       -18.4370   21.5530   53.9130 C.3    35  ASN35       0.1155
     24  CG       -18.6130   20.2870   54.7110 C.2    35  ASN35       0.2627
     25  OD1      -18.4760   20.2830   55.9340 O.2    35  ASN35      -0.2716
     26  ND2      -18.9070   19.1950   54.0180 N.am   35  ASN35      -0.0877
     27  N        -15.7360   25.0730   51.3220 N.3    37  TYR37      -0.1241
     28  CA       -14.6030   24.5620   50.5820 C.3    37  TYR37       0.1605
     29  C        -13.6220   25.6280   50.1090 C.2    37  TYR37       0.2264
     30  O        -13.5330   25.9090   48.9090 O.2    37  TYR37      -0.2867
     31  CB       -15.0880   23.7010   49.4180 C.3    37  TYR37       0.0534
     32  CG       -15.9590   22.5540   49.8430 C.ar   37  TYR37      -0.0201
     33  CD1      -15.4120   21.3270   50.1910 C.ar   37  TYR37      -0.0009
     34  CD2      -17.3270   22.7100   49.9520 C.ar   37  TYR37      -0.0009
     35  CE1      -16.2060   20.2880   50.6440 C.ar   37  TYR37       0.0417
     36  CE2      -18.1240   21.6880   50.4040 C.ar   37  TYR37       0.0417
     37  CZ       -17.5650   20.4840   50.7540 C.ar   37  TYR37       0.1957
     38  OH       -18.3750   19.4940   51.2540 O.3    37  TYR37      -0.2866
     39  N         -9.6100   26.5850   50.1900 N.3    39  HIS39      -0.1241
     40  CA        -8.3080   25.9280   50.3730 C.3    39  HIS39       0.1621
     41  C         -7.1560   26.8900   50.1510 C.2    39  HIS39       0.2264
     42  O         -7.3500   27.9740   49.6020 O.2    39  HIS39      -0.2867
     43  CB        -8.1610   24.7900   49.3750 C.3    39  HIS39       0.0745
     44  CG        -9.4180   24.0160   49.1710 C.ar   39  HIS39       0.0817
     45  ND1      -10.0210   23.3080   50.1820 N.ar   39  HIS39      -0.2268
     46  CD2      -10.2220   23.8990   48.0900 C.ar   39  HIS39       0.1154
     47  CE1      -11.1540   22.7920   49.7380 C.ar   39  HIS39       0.1986
     48  NE2      -11.2970   23.1370   48.4730 N.ar   39  HIS39      -0.2212
     49  N        -10.4680   23.1590   53.3240 N.3    55  LYS55      -0.1245
     50  CA       -11.6770   23.4060   54.0890 C.3    55  LYS55       0.1561
     51  C        -11.4280   24.3440   55.2490 C.2    55  LYS55       0.2260
     52  O        -11.7060   24.0360   56.3900 O.2    55  LYS55      -0.2867
     53  CB       -12.3400   22.1070   54.5280 C.3    55  LYS55       0.0271
     54  CG       -13.1210   21.4780   53.4020 C.3    55  LYS55       0.0035
     55  CD       -13.2090   19.9710   53.5310 C.3    55  LYS55       0.0206
     56  CE       -14.3560   19.5420   54.4170 C.3    55  LYS55       0.1093
     57  NZ       -14.4080   18.0550   54.5760 N.3    55  LYS55      -0.1314
     58  N        -13.8520   25.3480   45.8990 N.3    96  SER96      -0.1202
     59  CA       -14.4700   24.2560   45.1740 C.3    96  SER96       0.2020
     60  C        -15.9010   24.0650   45.6430 C.2    96  SER96       0.2619
     61  O        -16.4880   22.9950   45.4730 O.2    96  SER96      -0.2717
     62  CB       -13.6650   22.9660   45.2870 C.3    96  SER96       0.2103
     63  OG       -13.3250   22.6530   46.6230 O.3    96  SER96      -0.2182
     64  N        -16.4630   25.1150   46.2330 N.am   97  THR97      -0.1952
     65  CA       -17.8480   25.0940   46.7100 C.3    97  THR97       0.1897
     66  C        -18.7250   25.1860   45.4700 C.2    97  THR97       0.2313
     67  O        -19.6670   24.4100   45.2920 O.2    97  THR97      -0.2863
     68  CB       -18.1580   26.3400   47.5970 C.3    97  THR97       0.1794
     69  OG1      -17.5090   26.1990   48.8540 O.3    97  THR97      -0.2208
     70  CG2      -19.6480   26.5080   47.8280 C.3    97  THR97       0.0378
     71  N        -19.0810   25.5280   41.1810 N.3    99  VAL99      -0.1245
     72  CA       -18.5340   25.1170   39.8920 C.3    99  VAL99       0.1561
     73  C        -18.7800   26.3460   39.0150 C.2    99  VAL99       0.2260
     74  O        -19.9120   26.8520   38.9700 O.2    99  VAL99      -0.2867
     75  CB       -19.3060   23.9390   39.2840 C.3    99  VAL99       0.0252
     76  CG1      -18.9180   23.7740   37.8210 C.3    99  VAL99       0.0019
     77  CG2      -19.0200   22.6500   40.0550 C.3    99  VAL99       0.0019
     78  N        -14.5040   25.7650   39.6430 N.3   101  ARG101     -0.1245
     79  CA       -13.5210   25.9490   40.7100 C.3   101  ARG101      0.1563
     80  C        -12.7390   27.2170   40.3380 C.2   101  ARG101      0.2260
     81  O        -12.5230   27.4870   39.1540 O.2   101  ARG101     -0.2867
     82  CB       -12.5920   24.7310   40.7650 C.3   101  ARG101      0.0307
     83  CG       -11.5430   24.7860   41.8440 C.3   101  ARG101      0.0489
     84  CD       -10.6690   23.5450   41.8690 C.3   101  ARG101      0.2205
     85  NE       -11.4280   22.3060   42.0580 N.pl3 101  ARG101     -0.0865
     86  CZ       -11.3700   21.5310   43.1460 C.cat 101  ARG101      0.5346
     87  NH1      -10.5980   21.8610   44.1850 N.pl3 101  ARG101      0.1354
     88  NH2      -12.0570   20.3910   43.1670 N.pl3 101  ARG101      0.1354
@<TRIPOS>BOND
     1    76    75    1
     2    74    73    2
     3    73    72    1
     4    81    80    2
     5    75    72    1
     6    75    77    1
     7    78    79    1
     8    72    71    1
     9    80    79    1
    10    79    82    1
    11    82    83    1
    12    83    84    1
    13    84    85    1
    14    85    86    2
    15    86    88    1
    16    86    87    1
    17    59    62    1
    18    59    60    1
    19    59    58    1
    20    62    63    1
    21    67    66    2
    22    66    65    1
    23    61    60    2
    24    60    64   am
    25    64    65    1
    26    65    68    1
    27    10     8   ar
    28    10     9   ar
    29    68    70    1
    30    68    69    1
    31     8     6   ar
    32    46    48   ar
    33    46    44   ar
    34     9     7   ar
    35    48    47   ar
    36    30    29    2
    37    44    43    1
    38    44    45   ar
    39     6     7   ar
    40     6     5    1
    41    43    40    1
    42    31    32    1
    43    31    28    1
    44    42    41    2
    45    47    45   ar
    46    32    34   ar
    47    32    33   ar
    48    34    36   ar
    49    29    28    1
    50    41    40    1
    51    39    40    1
    52    33    35   ar
    53    36    37   ar
    54     5     2    1
    55    28    27    1
    56     2     3    1
    57     2     1    1
    58    35    37   ar
    59    37    38    1
    60    18    16   am
    61     3     4    2
    62    16    17    2
    63    16    15    1
    64    11    12    1
    65    15    12    1
    66    12    13    1
    67    22    21    2
    68    49    50    1
    69    54    55    1
    70    54    53    1
    71    55    56    1
    72    21    20    1
    73    23    20    1
    74    23    24    1
    75    26    24   am
    76    50    53    1
    77    50    51    1
    78    13    14    2
    79    56    57    1
    80    20    19    1
    81    24    25    2
    82    51    52    2
