@<TRIPOS>MOLECULE
tmp/1mrhA00.pdb
 132 129 0 0 0
SMALL
GASTEIGER

@<TRIPOS>ATOM
      1  N         43.8820   94.0720   -9.4790 N.3    69  VAL69      -0.1231
      2  CA        44.2850   95.3610  -10.0440 C.3    69  VAL69       0.1692
      3  C         45.7300   95.7510   -9.6500 C.2    69  VAL69       0.2592
      4  O         46.0450   96.9470   -9.4880 O.2    69  VAL69      -0.2718
      5  CB        43.2970   96.5560   -9.6660 C.3    69  VAL69       0.0266
      6  CG1       43.1990   97.5470  -10.8530 C.3    69  VAL69       0.0020
      7  CG2       41.9290   96.0630   -9.2780 C.3    69  VAL69       0.0020
      8  N         46.6220   94.7780   -9.5210 N.am   70  TYR70      -0.1962
      9  CA        47.9650   95.0980   -9.0350 C.3    70  TYR70       0.1771
     10  C         48.8810   95.3340  -10.1950 C.2    70  TYR70       0.2619
     11  O         48.8250   94.5590  -11.1650 O.2    70  TYR70      -0.2715
     12  CB        48.4990   93.9220   -8.2330 C.3    70  TYR70       0.0574
     13  CG        49.6620   94.2460   -7.3500 C.ar   70  TYR70      -0.0198
     14  CD1       50.9670   94.1360   -7.8090 C.ar   70  TYR70      -0.0009
     15  CD2       49.4600   94.5990   -6.0380 C.ar   70  TYR70      -0.0009
     16  CE1       52.0250   94.3680   -6.9830 C.ar   70  TYR70       0.0417
     17  CE2       50.5120   94.7990   -5.2010 C.ar   70  TYR70       0.0417
     18  CZ        51.7850   94.6780   -5.6720 C.ar   70  TYR70       0.1957
     19  OH        52.8120   94.7810   -4.7690 O.3    70  TYR70      -0.2866
     20  N         49.5290   96.5110  -10.1880 N.am   71  ILE71      -0.1977
     21  CA        50.5620   96.8820  -11.1920 C.3    71  ILE71       0.1596
     22  C         51.7880   95.9640  -11.0240 C.2    71  ILE71       0.2287
     23  O         52.2790   95.7950   -9.9000 O.2    71  ILE71      -0.2864
     24  CB        51.0540   98.3780  -11.0140 C.3    71  ILE71       0.0276
     25  CG1       49.8670   99.3480  -10.8760 C.3    71  ILE71       0.0022
     26  CG2       51.8940   98.7870  -12.2150 C.3    71  ILE71       0.0022
     27  CD1       49.2070   99.7220  -12.2120 C.3    71  ILE71       0.0001
     28  N         58.5150   94.4610  -10.6210 N.3    83  PHE83      -0.1241
     29  CA        58.8240   94.5790   -9.2000 C.3    83  PHE83       0.1605
     30  C         59.5910   93.3840   -8.7030 C.2    83  PHE83       0.2264
     31  O         59.5770   92.3280   -9.3360 O.2    83  PHE83      -0.2867
     32  CB        57.5520   94.7180   -8.3960 C.3    83  PHE83       0.0534
     33  CG        56.9030   96.0390   -8.5660 C.ar   83  PHE83      -0.0203
     34  CD1       57.5130   97.1900   -8.0550 C.ar   83  PHE83      -0.0042
     35  CD2       55.7120   96.1560   -9.2790 C.ar   83  PHE83      -0.0042
     36  CE1       56.9500   98.4410   -8.2510 C.ar   83  PHE83      -0.0003
     37  CE2       55.1420   97.4100   -9.4890 C.ar   83  PHE83      -0.0003
     38  CZ        55.7620   98.5560   -8.9740 C.ar   83  PHE83      -0.0000
     39  N         56.3740   95.9530   -5.0140 N.3   109  GLY109     -0.1210
     40  CA        55.4700   96.9790   -5.4740 C.3   109  GLY109      0.1956
     41  C         54.4460   97.3920   -4.4530 C.2   109  GLY109      0.2612
     42  O         53.4040   97.9300   -4.8100 O.2   109  GLY109     -0.2717
     43  N         54.7070   97.1420   -3.1840 N.am  110  ASP110     -0.1959
     44  CA        53.7590   97.5770   -2.2030 C.3   110  ASP110      0.1840
     45  C         54.1670   98.9250   -1.6580 C.2   110  ASP110      0.2622
     46  O         55.2370   99.4180   -1.9510 O.2   110  ASP110     -0.2715
     47  CB        53.6210   96.5280   -1.1130 C.3   110  ASP110      0.1450
     48  CG        54.6370   96.6830   -0.0420 C.2   110  ASP110      0.3671
     49  OD1       54.3880   97.4710    0.8990 O.co2 110  ASP110     -0.2456
     50  OD2       55.6890   96.0390   -0.1480 O.co2 110  ASP110     -0.2456
     51  N         53.2430   99.5890   -0.9810 N.am  111  TYR111     -0.1974
     52  CA        53.3930  100.9960   -0.6730 C.3   111  TYR111      0.1639
     53  C         54.5280  101.2150    0.2720 C.2   111  TYR111      0.2290
     54  O         55.2350  102.2070    0.1630 O.2   111  TYR111     -0.2864
     55  CB        52.1160  101.5500   -0.0550 C.3   111  TYR111      0.0560
     56  CG        51.0950  101.9530   -1.0800 C.ar  111  TYR111     -0.0198
     57  CD1       51.4860  102.4510   -2.2990 C.ar  111  TYR111     -0.0009
     58  CD2       49.7430  101.7840   -0.8470 C.ar  111  TYR111     -0.0009
     59  CE1       50.5680  102.7750   -3.2610 C.ar  111  TYR111      0.0417
     60  CE2       48.8190  102.0970   -1.8110 C.ar  111  TYR111      0.0417
     61  CZ        49.2400  102.5980   -3.0080 C.ar  111  TYR111      0.1957
     62  OH        48.3260  102.9660   -3.9520 O.3   111  TYR111     -0.2866
     63  N         50.2180  104.2030   -9.5720 N.3   155  ILE155     -0.1245
     64  CA        49.2680  103.2730   -8.9400 C.3   155  ILE155      0.1561
     65  C         48.0090  104.0190   -8.5430 C.2   155  ILE155      0.2260
     66  O         46.9220  103.6800   -9.0020 O.2   155  ILE155     -0.2867
     67  CB        49.8400  102.5990   -7.6540 C.3   155  ILE155      0.0252
     68  CG1       51.0250  101.6820   -7.9990 C.3   155  ILE155      0.0019
     69  CG2       48.7590  101.7990   -6.9530 C.3   155  ILE155      0.0019
     70  CD1       51.9500  101.3930   -6.8050 C.3   155  ILE155      0.0001
     71  N         44.9450  102.6060  -10.6360 N.3   159  ALA159     -0.1231
     72  CA        44.3900  101.4390   -9.9930 C.3   159  ALA159      0.1694
     73  C         43.4590  101.8370   -8.8740 C.2   159  ALA159      0.2591
     74  O         42.3950  101.2490   -8.7340 O.2   159  ALA159     -0.2718
     75  CB        45.5050  100.5690   -9.4530 C.3   159  ALA159      0.0304
     76  N         43.8820  102.7850   -8.0450 N.am  160  GLU160     -0.1979
     77  CA        43.0630  103.2890   -6.9380 C.3   160  GLU160      0.1602
     78  C         41.8530  104.1100   -7.3760 C.2   160  GLU160      0.2287
     79  O         40.8340  104.1560   -6.6730 O.2   160  GLU160     -0.2864
     80  CB        43.8990  104.1360   -5.9840 C.3   160  GLU160      0.0415
     81  CG        45.1180  103.4270   -5.3950 C.3   160  GLU160      0.1163
     82  CD        44.7580  102.2670   -4.4850 C.2   160  GLU160      0.3649
     83  OE1       43.7290  101.5980   -4.7410 O.co2 160  GLU160     -0.2457
     84  OE2       45.5280  101.9920   -3.5350 O.co2 160  GLU160     -0.2457
     85  N         39.3000  101.5110   -8.3330 N.3   163  ARG163     -0.1245
     86  CA        38.7210  100.8500   -7.1870 C.3   163  ARG163      0.1563
     87  C         37.7120  101.7030   -6.4840 C.2   163  ARG163      0.2260
     88  O         36.8150  101.1710   -5.8390 O.2   163  ARG163     -0.2867
     89  CB        39.8030  100.4420   -6.1870 C.3   163  ARG163      0.0307
     90  CG        40.9050   99.6030   -6.7760 C.3   163  ARG163      0.0489
     91  CD        41.8160   99.1060   -5.6790 C.3   163  ARG163      0.2205
     92  NE        42.7160   98.0560   -6.1460 N.pl3 163  ARG163     -0.0865
     93  CZ        44.0360   98.1070   -6.0400 C.cat 163  ARG163      0.5346
     94  NH1       44.6050   99.1690   -5.5100 N.pl3 163  ARG163      0.1354
     95  NH2       44.7610   97.0320   -6.3020 N.pl3 163  ARG163      0.1354
     96  N         42.4430  103.7730    0.2200 N.3   189  GLU189     -0.1231
     97  CA        43.4930  102.9280   -0.3660 C.3   189  GLU189      0.1699
     98  C         43.8540  101.7660    0.5140 C.2   189  GLU189      0.2592
     99  O         44.0380  100.6530    0.0390 O.2   189  GLU189     -0.2718
    100  CB        44.7640  103.7160   -0.6030 C.3   189  GLU189      0.0402
    101  CG        44.7190  104.6470   -1.8040 C.3   189  GLU189      0.1161
    102  CD        45.8580  105.6430   -1.7980 C.2   189  GLU189      0.3649
    103  OE1       46.6550  105.6770   -0.8240 O.co2 189  GLU189     -0.2457
    104  OE2       45.9500  106.4030   -2.7740 O.co2 189  GLU189     -0.2457
    105  N         43.9820  102.0310    1.8000 N.am  190  ASN190     -0.1974
    106  CA        44.4280  100.9980    2.7110 C.3   190  ASN190      0.1688
    107  C         43.3440   99.9680    3.0150 C.2   190  ASN190      0.2292
    108  O         43.6240   98.7620    2.9710 O.2   190  ASN190     -0.2864
    109  CB        44.9630  101.6130    3.9960 C.3   190  ASN190      0.1181
    110  CG        46.2170  102.4560    3.7590 C.2   190  ASN190      0.2629
    111  OD1       46.9450  102.2450    2.7920 O.2   190  ASN190     -0.2716
    112  ND2       46.4580  103.4310    4.6310 N.am  190  ASN190     -0.0877
    113  N         40.7130   98.8020    1.1330 N.3   192  TRP192     -0.1227
    114  CA        40.0690   98.0730    0.0420 C.3   192  TRP192      0.1737
    115  C         39.8840   96.6150    0.3510 C.2   192  TRP192      0.2596
    116  O         39.0270   95.9460   -0.2350 O.2   192  TRP192     -0.2718
    117  CB        40.8680   98.1620   -1.2500 C.3   192  TRP192      0.0564
    118  CG        40.1360   97.5460   -2.4120 C.ar  192  TRP192      0.0003
    119  CD1       38.9000   97.8820   -2.8440 C.ar  192  TRP192      0.0946
    120  CD2       40.6620   96.6130   -3.3770 C.ar  192  TRP192      0.0152
    121  NE1       38.6260   97.2480   -4.0360 N.ar  192  TRP192     -0.2442
    122  CE2       39.6940   96.4760   -4.3920 C.ar  192  TRP192      0.0810
    123  CE3       41.8720   95.9100   -3.5040 C.ar  192  TRP192      0.0012
    124  CZ2       39.8950   95.6810   -5.5210 C.ar  192  TRP192      0.0191
    125  CZ3       42.0740   95.1130   -4.6260 C.ar  192  TRP192      0.0001
    126  CH2       41.0900   95.0110   -5.6230 C.ar  192  TRP192      0.0015
    127  N         40.8880   96.0680    1.0030 N.am  193  SER193     -0.1952
    128  CA        40.9000   94.6520    1.3090 C.3   193  SER193      0.1924
    129  C         39.9110   94.3720    2.4470 C.2   193  SER193      0.2314
    130  O         39.0160   93.5440    2.3020 O.2   193  SER193     -0.2863
    131  CB        42.3320   94.2160    1.6770 C.3   193  SER193      0.2116
    132  OG        42.5320   92.8290    1.4400 O.3   193  SER193     -0.2180
@<TRIPOS>BOND
     1    26    24    1
     2    27    25    1
     3    21    22    1
     4    21    24    1
     5    21    20    1
     6    11    10    2
     7    22    23    2
     8    24    25    1
     9     6     5    1
    10    71    72    1
    11    28    29    1
    12    10    20   am
    13    10     9    1
    14     2     5    1
    15     2     3    1
    16     2     1    1
    17    72    75    1
    18    72    73    1
    19     5     7    1
    20     3     8   am
    21     3     4    2
    22    63    64    1
    23     8     9    1
    24    37    35   ar
    25    37    38   ar
    26    31    30    2
    27    35    33   ar
    28    29    30    1
    29    29    32    1
    30     9    12    1
    31    66    65    2
    32    38    36   ar
    33    64    65    1
    34    64    67    1
    35    73    74    2
    36    73    76   am
    37    33    32    1
    38    33    34   ar
    39    85    86    1
    40    36    34   ar
    41    12    13    1
    42    76    77    1
    43    68    67    1
    44    68    70    1
    45    14    13   ar
    46    14    16   ar
    47    67    69    1
    48    78    77    1
    49    78    79    2
    50    13    15   ar
    51    86    87    1
    52    86    89    1
    53    16    18   ar
    54    77    80    1
    55    90    89    1
    56    90    91    1
    57    87    88    2
    58    95    93    1
    59    92    93    2
    60    92    91    1
    61    93    94    1
    62    15    17   ar
    63    80    81    1
    64    18    17   ar
    65    18    19    1
    66   126   124   ar
    67   126   125   ar
    68   124   122   ar
    69    40    39    1
    70    40    41    1
    71    81    82    1
    72    42    41    2
    73    83    82   ar
    74   125   123   ar
    75    82    84   ar
    76    41    43   am
    77   122   121   ar
    78   122   120   ar
    79   121   119   ar
    80    62    61    1
    81   123   120   ar
    82   120   118   ar
    83    59    61   ar
    84    59    57   ar
    85    43    44    1
    86    61    60   ar
    87   119   118   ar
    88   104   102   ar
    89   118   117    1
    90    57    56   ar
    91    44    45    1
    92    44    47    1
    93    46    45    2
    94    60    58   ar
    95   101   102    1
    96   101   100    1
    97   102   103   ar
    98    45    51   am
    99   117   114    1
   100    47    48    1
   101    56    58   ar
   102    56    55    1
   103    51    52    1
   104    52    55    1
   105    52    53    1
   106   100    97    1
   107    97    96    1
   108    97    98    1
   109   116   115    2
   110    50    48   ar
   111    48    49   ar
   112    99    98    2
   113   114   115    1
   114   114   113    1
   115    54    53    2
   116   115   127   am
   117    98   105   am
   118   127   128    1
   119   128   131    1
   120   128   129    1
   121   132   131    1
   122   105   106    1
   123   130   129    2
   124   106   107    1
   125   106   109    1
   126   111   110    2
   127   108   107    2
   128   110   109    1
   129   110   112   am
