@<TRIPOS>MOLECULE
tmp/1mrjA00.pdb
 96 93 0 0 0
SMALL
GASTEIGER

@<TRIPOS>ATOM
      1  N         10.3270   -1.5330   32.8400 N.3    69  VAL69      -0.1231
      2  CA         9.7810   -1.1420   34.1390 C.3    69  VAL69       0.1692
      3  C         10.8960   -0.9310   35.1850 C.2    69  VAL69       0.2592
      4  O         10.6140   -0.8950   36.3930 O.2    69  VAL69      -0.2718
      5  CB         8.7310   -2.1900   34.6810 C.3    69  VAL69       0.0266
      6  CG1        7.7900   -1.5310   35.7060 C.3    69  VAL69       0.0020
      7  CG2        7.9050   -2.7870   33.5530 C.3    69  VAL69       0.0020
      8  N         12.1110   -0.6530   34.7430 N.am   70  TYR70      -0.1962
      9  CA        13.2090   -0.4110   35.6780 C.3    70  TYR70       0.1771
     10  C         13.1660    1.0380   36.2040 C.2    70  TYR70       0.2619
     11  O         12.9850    1.9990   35.4310 O.2    70  TYR70      -0.2715
     12  CB        14.5470   -0.6690   34.9860 C.3    70  TYR70       0.0574
     13  CG        15.6980   -1.0370   35.9040 C.ar   70  TYR70      -0.0198
     14  CD1       16.5070   -0.0540   36.4690 C.ar   70  TYR70      -0.0009
     15  CD2       16.0470   -2.3640   36.1120 C.ar   70  TYR70      -0.0009
     16  CE1       17.6300   -0.3780   37.1960 C.ar   70  TYR70       0.0417
     17  CE2       17.1680   -2.6980   36.8420 C.ar   70  TYR70       0.0417
     18  CZ        17.9610   -1.7010   37.3720 C.ar   70  TYR70       0.1957
     19  OH        19.1230   -2.0380   38.0160 O.3    70  TYR70      -0.2866
     20  N         13.3690    1.1910   37.4980 N.am   71  ILE71      -0.1977
     21  CA        13.5380    2.5140   38.0830 C.3    71  ILE71       0.1596
     22  C         14.9400    3.0290   37.7890 C.2    71  ILE71       0.2287
     23  O         15.9230    2.3370   38.0260 O.2    71  ILE71      -0.2864
     24  CB        13.2630    2.5000   39.6290 C.3    71  ILE71       0.0276
     25  CG1       11.7770    2.2040   39.8720 C.3    71  ILE71       0.0022
     26  CG2       13.6740    3.8600   40.2670 C.3    71  ILE71       0.0022
     27  CD1       11.3650    2.0360   41.3070 C.3    71  ILE71       0.0001
     28  N         20.8150    5.9570   39.5490 N.3    83  PHE83      -0.1241
     29  CA        21.6610    4.7800   39.7350 C.3    83  PHE83       0.1605
     30  C         22.9250    4.8980   38.8950 C.2    83  PHE83       0.2264
     31  O         22.9670    5.5900   37.8690 O.2    83  PHE83      -0.2867
     32  CB        20.9130    3.5130   39.3520 C.3    83  PHE83       0.0534
     33  CG        19.9190    3.0760   40.3780 C.ar   83  PHE83      -0.0203
     34  CD1       20.3260    2.7990   41.6790 C.ar   83  PHE83      -0.0042
     35  CD2       18.5810    2.9240   40.0400 C.ar   83  PHE83      -0.0042
     36  CE1       19.4230    2.3670   42.6360 C.ar   83  PHE83      -0.0003
     37  CE2       17.6660    2.4990   40.9830 C.ar   83  PHE83      -0.0003
     38  CZ        18.0880    2.2160   42.2920 C.ar   83  PHE83      -0.0000
     39  N         21.1230   -0.3340   40.0200 N.3   109  GLY109     -0.1210
     40  CA        19.8230   -0.6430   40.5760 C.3   109  GLY109      0.1956
     41  C         19.4980   -2.1220   40.7060 C.2   109  GLY109      0.2612
     42  O         18.3300   -2.4860   40.8070 O.2   109  GLY109     -0.2717
     43  N         20.4960   -2.9960   40.6630 N.am  110  ASN110     -0.1960
     44  CA        20.1730   -4.4150   40.7110 C.3   110  ASN110      0.1819
     45  C         20.2030   -4.9080   42.1450 C.2   110  ASN110      0.2621
     46  O         20.9200   -4.3640   42.9810 O.2   110  ASN110     -0.2715
     47  CB        21.1270   -5.2260   39.8290 C.3   110  ASN110      0.1195
     48  CG        22.4740   -5.4370   40.4750 C.2   110  ASN110      0.2630
     49  OD1       23.2210   -4.4920   40.6880 O.2   110  ASN110     -0.2716
     50  ND2       22.7650   -6.6740   40.8420 N.am  110  ASN110     -0.0877
     51  N         19.4180   -5.9400   42.4300 N.am  111  TYR111     -0.1974
     52  CA        19.2320   -6.4020   43.8110 C.3   111  TYR111      0.1639
     53  C         20.5090   -6.8430   44.5010 C.2   111  TYR111      0.2290
     54  O         20.5960   -6.7510   45.7160 O.2   111  TYR111     -0.2864
     55  CB        18.2290   -7.5680   43.8900 C.3   111  TYR111      0.0560
     56  CG        16.7780   -7.1590   43.7000 C.ar  111  TYR111     -0.0198
     57  CD1       16.2540   -6.0510   44.3540 C.ar  111  TYR111     -0.0009
     58  CD2       15.9370   -7.8910   42.8830 C.ar  111  TYR111     -0.0009
     59  CE1       14.9330   -5.6860   44.1960 C.ar  111  TYR111      0.0417
     60  CE2       14.6150   -7.5440   42.7270 C.ar  111  TYR111      0.0417
     61  CZ        14.1180   -6.4440   43.3850 C.ar  111  TYR111      0.1957
     62  OH        12.8000   -6.1000   43.2450 O.3   111  TYR111     -0.2866
     63  N         11.1650   -0.1570   44.6930 N.3   155  ILE155     -0.1245
     64  CA        11.1660   -0.9980   43.4900 C.3   155  ILE155      0.1561
     65  C         10.0840   -2.0780   43.5750 C.2   155  ILE155      0.2260
     66  O          9.3090   -2.2850   42.6290 O.2   155  ILE155     -0.2867
     67  CB        12.5540   -1.6740   43.2610 C.3   155  ILE155      0.0252
     68  CG1       13.5840   -0.6190   42.8270 C.3   155  ILE155      0.0019
     69  CG2       12.4520   -2.8040   42.2130 C.3   155  ILE155      0.0019
     70  CD1       15.0160   -1.1140   42.9250 C.3   155  ILE155      0.0001
     71  N          7.5750   -1.3440   40.4610 N.3   159  SER159     -0.1202
     72  CA         7.9400   -2.2150   39.3500 C.3   159  SER159      0.2020
     73  C          7.4650   -3.6510   39.5380 C.2   159  SER159      0.2618
     74  O          6.8370   -4.2180   38.6420 O.2   159  SER159     -0.2717
     75  CB         9.4550   -2.1980   39.1340 C.3   159  SER159      0.2103
     76  OG         9.9120   -0.8670   38.9740 O.3   159  SER159     -0.2182
     77  N          7.7820   -4.2590   40.6770 N.am  160  GLU160     -0.1979
     78  CA         7.4550   -5.6650   40.8790 C.3   160  GLU160      0.1602
     79  C          5.9620   -5.9140   41.0290 C.2   160  GLU160      0.2287
     80  O          5.4250   -6.8950   40.4870 O.2   160  GLU160     -0.2864
     81  CB         8.2170   -6.2300   42.0780 C.3   160  GLU160      0.0415
     82  CG         9.7270   -6.0490   41.9790 C.3   160  GLU160      0.1163
     83  CD        10.4110   -6.9750   40.9650 C.2   160  GLU160      0.3649
     84  OE1        9.8020   -7.3810   39.9590 O.co2 160  GLU160     -0.2457
     85  OE2       11.6220   -7.1980   41.0970 O.co2 160  GLU160     -0.2457
     86  N          4.5720   -5.9980   37.5260 N.3   163  ARG163     -0.1245
     87  CA         4.8830   -7.2320   36.7930 C.3   163  ARG163      0.1563
     88  C          3.9870   -8.4250   37.1620 C.2   163  ARG163      0.2260
     89  O          3.7440   -9.2950   36.3290 O.2   163  ARG163     -0.2867
     90  CB         6.3630   -7.6020   37.0030 C.3   163  ARG163      0.0307
     91  CG         7.3320   -6.5940   36.3740 C.3   163  ARG163      0.0489
     92  CD         8.7550   -6.7350   36.9150 C.3   163  ARG163      0.2205
     93  NE         9.6930   -5.8090   36.2580 N.pl3 163  ARG163     -0.0865
     94  CZ        10.7340   -5.2410   36.8710 C.cat 163  ARG163      0.5346
     95  NH1       10.9740   -5.5020   38.1580 N.pl3 163  ARG163      0.1354
     96  NH2       11.5020   -4.3620   36.2330 N.pl3 163  ARG163      0.1354
@<TRIPOS>BOND
     1     1     2    1
     2     7     5    1
     3     2     5    1
     4     2     3    1
     5     5     6    1
     6     8     3   am
     7     8     9    1
     8    12     9    1
     9    12    13    1
    10     3     4    2
    11    11    10    2
    12     9    10    1
    13    13    15   ar
    14    13    14   ar
    15    15    17   ar
    16    10    20   am
    17    96    94    1
    18    93    94    2
    19    93    92    1
    20    89    88    2
    21    91    92    1
    22    91    90    1
    23    14    16   ar
    24    87    90    1
    25    87    88    1
    26    87    86    1
    27    17    18   ar
    28    94    95    1
    29    16    18   ar
    30    18    19    1
    31    20    21    1
    32    22    23    2
    33    22    21    1
    34    31    30    2
    35    21    24    1
    36    74    73    2
    37    30    29    1
    38    76    75    1
    39    75    72    1
    40    72    73    1
    41    72    71    1
    42    32    29    1
    43    32    33    1
    44    73    77   am
    45    28    29    1
    46    24    25    1
    47    24    26    1
    48    47    48    1
    49    47    44    1
    50    25    27    1
    51    84    83   ar
    52    39    40    1
    53    35    33   ar
    54    35    37   ar
    55    33    34   ar
    56    48    49    2
    57    48    50   am
    58    80    79    2
    59    40    41    1
    60    43    41   am
    61    43    44    1
    62    77    78    1
    63    41    42    2
    64    44    45    1
    65    78    79    1
    66    78    81    1
    67    83    85   ar
    68    83    82    1
    69    37    38   ar
    70    34    36   ar
    71    82    81    1
    72    45    51   am
    73    45    46    2
    74    69    67    1
    75    38    36   ar
    76    51    52    1
    77    66    65    2
    78    60    58   ar
    79    60    61   ar
    80    68    70    1
    81    68    67    1
    82    58    56   ar
    83    62    61    1
    84    67    64    1
    85    61    59   ar
    86    64    65    1
    87    64    63    1
    88    56    55    1
    89    56    57   ar
    90    52    55    1
    91    52    53    1
    92    59    57   ar
    93    53    54    2
