@<TRIPOS>MOLECULE
tmp/1mrkA00.pdb
 151 146 0 0 0
SMALL
GASTEIGER

@<TRIPOS>ATOM
      1  N         12.1910   -0.6590   34.7570 N.3    70  TYR70      -0.1227
      2  CA        13.2570   -0.3430   35.7210 C.3    70  TYR70       0.1736
      3  C         13.1290    1.1010   36.2500 C.2    70  TYR70       0.2595
      4  O         12.7890    2.0300   35.5120 O.2    70  TYR70      -0.2718
      5  CB        14.6700   -0.5500   35.1100 C.3    70  TYR70       0.0548
      6  CG        15.0930   -2.0000   34.9550 C.ar   70  TYR70      -0.0200
      7  CD1       14.1980   -3.0270   35.2100 C.ar   70  TYR70      -0.0009
      8  CD2       16.3320   -2.3410   34.4190 C.ar   70  TYR70      -0.0009
      9  CE1       14.4990   -4.3390   34.9230 C.ar   70  TYR70       0.0417
     10  CE2       16.6490   -3.6720   34.1270 C.ar   70  TYR70       0.0417
     11  CZ        15.7150   -4.6610   34.3790 C.ar   70  TYR70       0.1957
     12  OH        15.9460   -5.9740   34.0390 O.3    70  TYR70      -0.2866
     13  N         13.4330    1.2830   37.5260 N.am   71  ILE71      -0.1966
     14  CA        13.5450    2.6120   38.1160 C.3    71  ILE71       0.1727
     15  C         14.9370    3.1590   37.7650 C.2    71  ILE71       0.2616
     16  O         15.9460    2.4710   37.9710 O.2    71  ILE71      -0.2715
     17  CB        13.3760    2.5670   39.6730 C.3    71  ILE71       0.0290
     18  CG1       11.9460    2.1500   40.0350 C.3    71  ILE71       0.0022
     19  CG2       13.7350    3.9250   40.2850 C.3    71  ILE71       0.0023
     20  CD1       11.5380    2.4180   41.4390 C.3    71  ILE71       0.0001
     21  N         14.9590    4.3060   37.0800 N.am   72  MET72      -0.1977
     22  CA        16.1870    4.9990   36.6680 C.3    72  MET72       0.1605
     23  C         16.7310    5.8650   37.8040 C.2    72  MET72       0.2287
     24  O         17.9450    5.9890   37.9820 O.2    72  MET72      -0.2864
     25  CB        15.8930    5.8920   35.4610 C.3    72  MET72       0.0413
     26  CG        15.3850    5.1330   34.2670 C.3    72  MET72       0.0598
     27  SD        16.6980    4.1380   33.5690 S.3    72  MET72      -0.1393
     28  CE        16.5720    2.6020   34.4610 C.3    72  MET72       0.0692
     29  N         20.6890    5.9630   39.6230 N.3    83  PHE83      -0.1241
     30  CA        21.4970    4.7570   39.7980 C.3    83  PHE83       0.1605
     31  C         22.7520    4.8500   38.9550 C.2    83  PHE83       0.2264
     32  O         22.7750    5.4790   37.8880 O.2    83  PHE83      -0.2867
     33  CB        20.7190    3.5100   39.3810 C.3    83  PHE83       0.0534
     34  CG        19.7460    3.0430   40.4100 C.ar   83  PHE83      -0.0203
     35  CD1       20.1800    2.7370   41.6890 C.ar   83  PHE83      -0.0042
     36  CD2       18.3910    2.8930   40.0950 C.ar   83  PHE83      -0.0042
     37  CE1       19.2770    2.2890   42.6500 C.ar   83  PHE83      -0.0003
     38  CE2       17.4860    2.4500   41.0360 C.ar   83  PHE83      -0.0003
     39  CZ        17.9260    2.1440   42.3180 C.ar   83  PHE83      -0.0000
     40  N         24.2830    3.2340   36.6160 N.3    85  GLU85      -0.1245
     41  CA        24.2070    2.2520   35.5600 C.3    85  GLU85       0.1567
     42  C         23.8380    2.9410   34.2510 C.2    85  GLU85       0.2260
     43  O         23.2390    4.0220   34.2520 O.2    85  GLU85      -0.2867
     44  CB        23.2080    1.1440   35.9320 C.3    85  GLU85       0.0388
     45  CG        21.7590    1.5190   36.0380 C.3    85  GLU85       0.1160
     46  CD        20.8860    0.3110   36.3870 C.2    85  GLU85       0.3649
     47  OE1       20.8430   -0.6680   35.6120 O.co2  85  GLU85      -0.2457
     48  OE2       20.2580    0.3310   37.4590 O.co2  85  GLU85      -0.2457
     49  N         20.8030   -0.3890   40.1540 N.3   109  GLY109     -0.1210
     50  CA        19.5440   -0.8040   40.7340 C.3   109  GLY109      0.1956
     51  C         19.3430   -2.3000   40.8340 C.2   109  GLY109      0.2612
     52  O         18.2250   -2.7660   41.0590 O.2   109  GLY109     -0.2717
     53  N         20.4010   -3.0820   40.7040 N.am  110  ASN110     -0.1960
     54  CA        20.1830   -4.5150   40.7730 C.3   110  ASN110      0.1819
     55  C         20.2720   -5.0660   42.2070 C.2   110  ASN110      0.2621
     56  O         21.0300   -4.5700   43.0450 O.2   110  ASN110     -0.2715
     57  CB        21.1090   -5.2400   39.8080 C.3   110  ASN110      0.1195
     58  CG        22.4010   -5.6110   40.4250 C.2   110  ASN110      0.2630
     59  OD1       23.1730   -4.7370   40.8150 O.2   110  ASN110     -0.2716
     60  ND2       22.5940   -6.9110   40.6630 N.am  110  ASN110     -0.0877
     61  N         19.3820   -6.0050   42.5080 N.am  111  TYR111     -0.1974
     62  CA        19.1580   -6.4720   43.8730 C.3   111  TYR111      0.1639
     63  C         20.4140   -6.9630   44.5490 C.2   111  TYR111      0.2290
     64  O         20.5330   -6.8170   45.7610 O.2   111  TYR111     -0.2864
     65  CB        18.1290   -7.6070   43.9130 C.3   111  TYR111      0.0560
     66  CG        16.7030   -7.1550   43.7040 C.ar  111  TYR111     -0.0198
     67  CD1       16.2090   -6.0240   44.3400 C.ar  111  TYR111     -0.0009
     68  CD2       15.8470   -7.8740   42.8920 C.ar  111  TYR111     -0.0009
     69  CE1       14.9060   -5.6330   44.1680 C.ar  111  TYR111      0.0417
     70  CE2       14.5420   -7.4900   42.7120 C.ar  111  TYR111      0.0417
     71  CZ        14.0790   -6.3710   43.3500 C.ar  111  TYR111      0.1957
     72  OH        12.7770   -6.0060   43.1810 O.3   111  TYR111     -0.2866
     73  N         11.1700   -0.1960   44.5840 N.3   155  ILE155     -0.1245
     74  CA        11.1330   -1.0490   43.3940 C.3   155  ILE155      0.1561
     75  C         10.0760   -2.1710   43.4930 C.2   155  ILE155      0.2260
     76  O          9.3140   -2.4140   42.5470 O.2   155  ILE155     -0.2867
     77  CB        12.5260   -1.6760   43.1200 C.3   155  ILE155      0.0252
     78  CG1       13.5130   -0.5730   42.6670 C.3   155  ILE155      0.0019
     79  CG2       12.4140   -2.7830   42.0300 C.3   155  ILE155      0.0019
     80  CD1       14.9890   -0.9130   42.9120 C.3   155  ILE155      0.0001
     81  N          7.5870   -1.4600   40.4510 N.3   159  SER159     -0.1202
     82  CA         7.9730   -2.3430   39.3560 C.3   159  SER159      0.2020
     83  C          7.4490   -3.7630   39.5130 C.2   159  SER159      0.2618
     84  O          6.8440   -4.3080   38.5870 O.2   159  SER159     -0.2717
     85  CB         9.5010   -2.3760   39.2320 C.3   159  SER159      0.2103
     86  OG        10.0200   -1.0780   39.0200 O.3   159  SER159     -0.2182
     87  N          7.7070   -4.3670   40.6730 N.am  160  GLU160     -0.1979
     88  CA         7.3980   -5.7710   40.8670 C.3   160  GLU160      0.1602
     89  C          5.9050   -5.9900   41.0090 C.2   160  GLU160      0.2287
     90  O          5.3700   -6.9590   40.4740 O.2   160  GLU160     -0.2864
     91  CB         8.1400   -6.3330   42.0750 C.3   160  GLU160      0.0415
     92  CG         9.6540   -6.1390   41.9840 C.3   160  GLU160      0.1163
     93  CD        10.3560   -7.0190   40.9480 C.2   160  GLU160      0.3649
     94  OE1        9.7250   -7.5350   40.0120 O.co2 160  GLU160     -0.2457
     95  OE2       11.5900   -7.1460   41.0300 O.co2 160  GLU160     -0.2457
     96  N          4.4440   -5.9980   37.4890 N.3   163  ARG163     -0.1245
     97  CA         4.7520   -7.2180   36.7450 C.3   163  ARG163      0.1563
     98  C          3.8780   -8.4170   37.1460 C.2   163  ARG163      0.2260
     99  O          3.6110   -9.2950   36.3170 O.2   163  ARG163     -0.2867
    100  CB         6.2400   -7.5740   36.9290 C.3   163  ARG163      0.0307
    101  CG         7.2230   -6.6070   36.2630 C.3   163  ARG163      0.0489
    102  CD         8.6150   -6.7730   36.8410 C.3   163  ARG163      0.2205
    103  NE         9.5740   -5.8210   36.2710 N.pl3 163  ARG163     -0.0865
    104  CZ        10.6790   -5.3980   36.8900 C.cat 163  ARG163      0.5346
    105  NH1       10.9700   -5.8330   38.1100 N.pl3 163  ARG163      0.1354
    106  NH2       11.5020   -4.5430   36.2920 N.pl3 163  ARG163      0.1354
    107  N         10.0580  -12.3880   41.5240 N.3   189  GLU189     -0.1231
    108  CA        10.9840  -11.3100   41.2010 C.3   189  GLU189      0.1699
    109  C         12.2270  -11.8460   40.4660 C.2   189  GLU189      0.2592
    110  O         12.6220  -11.3280   39.4170 O.2   189  GLU189     -0.2718
    111  CB        11.4010  -10.5960   42.4840 C.3   189  GLU189      0.0402
    112  CG        10.2570   -9.9220   43.2050 C.3   189  GLU189      0.1161
    113  CD        10.6760   -9.2850   44.5100 C.2   189  GLU189      0.3649
    114  OE1       11.8230   -9.4870   44.9530 O.co2 189  GLU189     -0.2457
    115  OE2        9.8480   -8.5570   45.0830 O.co2 189  GLU189     -0.2457
    116  N         12.8080  -12.9210   40.9960 N.am  190  ASN190     -0.1974
    117  CA        13.9850  -13.5310   40.3900 C.3   190  ASN190      0.1688
    118  C         13.7040  -14.0330   38.9580 C.2   190  ASN190      0.2292
    119  O         14.5650  -13.9180   38.0820 O.2   190  ASN190     -0.2864
    120  CB        14.5020  -14.7080   41.2530 C.3   190  ASN190      0.1181
    121  CG        15.1460  -14.2750   42.5930 C.2   190  ASN190      0.2629
    122  OD1       15.4210  -13.0780   42.8330 O.2   190  ASN190     -0.2716
    123  ND2       15.4190  -15.2620   43.4540 N.am  190  ASN190     -0.0877
    124  N         11.2370  -13.1960   36.5310 N.3   192  TRP192     -0.1227
    125  CA        10.4660  -12.4200   35.5630 C.3   192  TRP192      0.1737
    126  C         11.0350  -12.5310   34.1540 C.2   192  TRP192      0.2596
    127  O         10.2950  -12.7490   33.1960 O.2   192  TRP192     -0.2718
    128  CB        10.3880  -10.9320   35.9570 C.3   192  TRP192      0.0564
    129  CG         9.5010  -10.1200   35.0050 C.ar  192  TRP192      0.0003
    130  CD1        8.1870  -10.3660   34.6940 C.ar  192  TRP192      0.0946
    131  CD2        9.8720   -8.9490   34.2750 C.ar  192  TRP192      0.0152
    132  NE1        7.7200   -9.4060   33.8220 N.ar  192  TRP192     -0.2442
    133  CE2        8.7270   -8.5180   33.5530 C.ar  192  TRP192      0.0810
    134  CE3       11.0530   -8.1980   34.1730 C.ar  192  TRP192      0.0012
    135  CZ2        8.7340   -7.3720   32.7550 C.ar  192  TRP192      0.0191
    136  CZ3       11.0580   -7.0590   33.3750 C.ar  192  TRP192      0.0001
    137  CH2        9.8990   -6.6580   32.6790 C.ar  192  TRP192      0.0015
    138  N         12.3530  -12.4380   34.0470 N.am  193  SER193     -0.1952
    139  CA        13.0370  -12.4480   32.7610 C.3   193  SER193      0.1924
    140  C         12.8840  -13.8140   32.0800 C.2   193  SER193      0.2314
    141  O         12.4590  -13.9100   30.9160 O.2   193  SER193     -0.2863
    142  CB        14.5190  -12.1160   32.9730 C.3   193  SER193      0.2116
    143  OG        15.1790  -11.7880   31.7640 O.3   193  SER193     -0.2180
    144  N          8.6400   -8.9600   29.5290 N.3   241  LEU241     -0.1245
    145  CA         9.8780   -8.3500   29.0450 C.3   241  LEU241      0.1561
    146  C         10.1550   -8.8790   27.6470 C.2   241  LEU241      0.2260
    147  O         10.1120  -10.0810   27.4030 O.2   241  LEU241     -0.2867
    148  CB        11.0560   -8.7120   29.9700 C.3   241  LEU241      0.0270
    149  CG        12.4460   -8.1390   29.6120 C.3   241  LEU241      0.0019
    150  CD1       12.4230   -6.6070   29.6600 C.3   241  LEU241      0.0001
    151  CD2       13.4810   -8.7000   30.5620 C.3   241  LEU241      0.0001
@<TRIPOS>BOND
     1   147   146    2
     2   146   145    1
     3   145   144    1
     4   145   148    1
     5   149   150    1
     6   149   148    1
     7   149   151    1
     8   141   140    2
     9   143   142    1
    10   140   139    1
    11   137   135   ar
    12   137   136   ar
    13   135   133   ar
    14   139   142    1
    15   139   138    1
    16   127   126    2
    17   136   134   ar
    18   133   132   ar
    19   133   131   ar
    20    27    26    1
    21    27    28    1
    22   132   130   ar
    23    12    11    1
    24   138   126   am
    25    10    11   ar
    26    10     8   ar
    27   126   125    1
    28   134   131   ar
    29    42    43    2
    30    42    41    1
    31    26    25    1
    32   131   129   ar
    33    11     9   ar
    34     8     6   ar
    35   130   129   ar
    36     1     2    1
    37     9     7   ar
    38     6     5    1
    39     6     7   ar
    40   129   128    1
    41     5     2    1
    42    25    22    1
    43     4     3    2
    44    41    44    1
    45    41    40    1
    46   125   128    1
    47   125   124    1
    48    47    46   ar
    49     2     3    1
    50    44    45    1
    51    45    46    1
    52     3    13   am
    53   101   102    1
    54   101   100    1
    55   103   102    1
    56   103   104    2
    57   106   104    1
    58    99    98    2
    59    46    48   ar
    60    22    21    1
    61    22    23    1
    62    97   100    1
    63    97    98    1
    64    97    96    1
    65   104   105    1
    66    21    15   am
    67    13    14    1
    68    15    16    2
    69    15    14    1
    70    23    24    2
    71    32    31    2
    72   119   118    2
    73    14    17    1
    74    84    83    2
    75    31    30    1
    76   118   117    1
    77    86    85    1
    78    85    82    1
    79    82    83    1
    80    82    81    1
    81    33    30    1
    82    33    34    1
    83   110   109    2
    84    83    87   am
    85    29    30    1
    86    17    18    1
    87    17    19    1
    88    57    58    1
    89    57    54    1
    90    94    93   ar
    91    18    20    1
    92    36    34   ar
    93    36    38   ar
    94    49    50    1
    95   117   116    1
    96   117   120    1
    97    34    35   ar
    98    58    60   am
    99    58    59    2
   100   109   116   am
   101   109   108    1
   102    90    89    2
   103    87    88    1
   104    53    54    1
   105    53    51   am
   106    50    51    1
   107    54    55    1
   108    51    52    2
   109    88    89    1
   110    88    91    1
   111    93    95   ar
   112    93    92    1
   113    38    39   ar
   114   108   107    1
   115   108   111    1
   116   120   121    1
   117    35    37   ar
   118    92    91    1
   119    79    77    1
   120    55    61   am
   121    55    56    2
   122    39    37   ar
   123   111   112    1
   124    61    62    1
   125    76    75    2
   126   121   122    2
   127   121   123   am
   128    78    80    1
   129    78    77    1
   130    70    68   ar
   131    70    71   ar
   132    68    66   ar
   133    77    74    1
   134    72    71    1
   135   112   113    1
   136    71    69   ar
   137    74    75    1
   138    74    73    1
   139    66    65    1
   140    66    67   ar
   141    62    65    1
   142    62    63    1
   143    69    67   ar
   144   113   114   ar
   145   113   115   ar
   146    63    64    2
