@<TRIPOS>MOLECULE
tmp/1mrlC01.pdb
 132 128 0 0 0
SMALL
GASTEIGER

@<TRIPOS>ATOM
      1  N         40.1160   19.8000   50.5640 N.3    52  TYR52      -0.1241
      2  CA        39.9680   18.7640   51.5840 C.3    52  TYR52       0.1605
      3  C         40.1540   17.3350   51.0700 C.2    52  TYR52       0.2264
      4  O         39.4300   16.4260   51.4730 O.2    52  TYR52      -0.2867
      5  CB        38.6140   18.9040   52.2910 C.3    52  TYR52       0.0534
      6  CG        38.3390   20.2950   52.8190 C.ar   52  TYR52      -0.0201
      7  CD1       37.4480   21.1390   52.1700 C.ar   52  TYR52      -0.0009
      8  CD2       38.9700   20.7650   53.9640 C.ar   52  TYR52      -0.0009
      9  CE1       37.1920   22.4110   52.6420 C.ar   52  TYR52       0.0417
     10  CE2       38.7200   22.0370   54.4470 C.ar   52  TYR52       0.0417
     11  CZ        37.8300   22.8560   53.7800 C.ar   52  TYR52       0.1957
     12  OH        37.5710   24.1240   54.2510 O.3    52  TYR52      -0.2866
     13  N         42.4510   14.2170   51.1730 N.3    54  TYR54      -0.1241
     14  CA        43.5630   13.5950   51.8870 C.3    54  TYR54       0.1605
     15  C         43.6930   12.1100   51.5740 C.2    54  TYR54       0.2264
     16  O         42.7100   11.3750   51.5830 O.2    54  TYR54      -0.2867
     17  CB        43.4060   13.8090   53.3940 C.3    54  TYR54       0.0534
     18  CG        43.1700   15.2530   53.7670 C.ar   54  TYR54      -0.0201
     19  CD1       43.9710   16.2590   53.2500 C.ar   54  TYR54      -0.0009
     20  CD2       42.1410   15.6130   54.6210 C.ar   54  TYR54      -0.0009
     21  CE1       43.7610   17.5820   53.5790 C.ar   54  TYR54       0.0417
     22  CE2       41.9240   16.9360   54.9590 C.ar   54  TYR54       0.0417
     23  CZ        42.7380   17.9160   54.4340 C.ar   54  TYR54       0.1957
     24  OH        42.5290   19.2380   54.7580 O.3    54  TYR54      -0.2866
     25  N         44.8210    9.7240   53.3220 N.3    56  ILE56      -0.1231
     26  CA        44.4380    8.8820   54.4510 C.3    56  ILE56       0.1692
     27  C         42.9570    8.4890   54.4480 C.2    56  ILE56       0.2591
     28  O         42.5810    7.4620   55.0110 O.2    56  ILE56      -0.2718
     29  CB        44.8070    9.5840   55.7810 C.3    56  ILE56       0.0266
     30  CG1       44.5500    8.6680   56.9790 C.3    56  ILE56       0.0019
     31  CG2       44.0280   10.8760   55.9390 C.3    56  ILE56       0.0020
     32  CD1       45.4880    7.5040   57.0700 C.3    56  ILE56       0.0001
     33  N         42.1200    9.2970   53.8040 N.am   57  LEU57      -0.1980
     34  CA        40.6810    9.0370   53.7840 C.3    57  LEU57       0.1596
     35  C         40.2460    8.1070   52.6480 C.2    57  LEU57       0.2287
     36  O         39.1230    7.6070   52.6400 O.2    57  LEU57      -0.2864
     37  CB        39.8940   10.3490   53.7680 C.3    57  LEU57       0.0297
     38  CG        40.1330   11.2280   55.0020 C.3    57  LEU57       0.0022
     39  CD1       39.3110   12.5060   54.9420 C.3    57  LEU57       0.0001
     40  CD2       39.8360   10.4640   56.2860 C.3    57  LEU57       0.0001
     41  N         37.4750   15.5100   53.4840 N.3    79  GLY79      -0.1210
     42  CA        38.3320   16.0570   54.5210 C.3    79  GLY79       0.1956
     43  C         37.7050   17.1240   55.3990 C.2    79  GLY79       0.2612
     44  O         38.2870   17.5210   56.4060 O.2    79  GLY79      -0.2717
     45  N         36.5150   17.5860   55.0310 N.am   80  ALA80      -0.1965
     46  CA        35.8490   18.6460   55.7840 C.3    80  ALA80       0.1728
     47  C         34.9000   18.1370   56.8690 C.2    80  ALA80       0.2616
     48  O         34.4580   18.9060   57.7200 O.2    80  ALA80      -0.2715
     49  CB        35.1130   19.5860   54.8360 C.3    80  ALA80       0.0334
     50  N         34.5910   16.8460   56.8420 N.am   81  ASN81      -0.1958
     51  CA        33.6590   16.2720   57.8080 C.3    81  ASN81       0.1819
     52  C         34.1930   16.2120   59.2370 C.2    81  ASN81       0.2621
     53  O         35.3040   15.7430   59.4730 O.2    81  ASN81      -0.2715
     54  CB        33.2370   14.8670   57.3730 C.3    81  ASN81       0.1195
     55  CG        32.7410   14.8210   55.9440 C.2    81  ASN81       0.2630
     56  OD1       31.9620   15.6760   55.5130 O.2    81  ASN81      -0.2716
     57  ND2       33.1890   13.8150   55.1980 N.am   81  ASN81      -0.0877
     58  N         33.3900   16.6840   60.1860 N.am   82  HIS82      -0.1959
     59  CA        33.7420   16.6100   61.5990 C.3    82  HIS82       0.1787
     60  C         33.1030   15.3530   62.1870 C.2    82  HIS82       0.2620
     61  O         32.2540   14.7320   61.5510 O.2    82  HIS82      -0.2715
     62  CB        33.2220   17.8370   62.3530 C.3    82  HIS82       0.0785
     63  CG        33.9790   19.0990   62.0700 C.ar   82  HIS82       0.0821
     64  ND1       34.2940   20.0110   63.0540 N.ar   82  HIS82      -0.2267
     65  CD2       34.4730   19.6070   60.9160 C.ar   82  HIS82       0.1154
     66  CE1       34.9500   21.0250   62.5190 C.ar   82  HIS82       0.1986
     67  NE2       35.0710   20.8050   61.2230 N.ar   82  HIS82      -0.2212
     68  N         33.5080   14.9770   63.3970 N.am   83  ARG83      -0.1977
     69  CA        32.8820   13.8490   64.0760 C.3    83  ARG83       0.1597
     70  C         31.4590   14.2740   64.4340 C.2    83  ARG83       0.2287
     71  O         31.2360   15.4150   64.8390 O.2    83  ARG83      -0.2864
     72  CB        33.6690   13.4620   65.3240 C.3    83  ARG83       0.0334
     73  CG        33.2290   12.1510   65.9440 C.3    83  ARG83       0.0492
     74  CD        34.0650   11.7150   67.1310 C.3    83  ARG83       0.2205
     75  NE        33.5640   10.4780   67.7210 N.pl3  83  ARG83      -0.0865
     76  CZ        34.1590    9.8330   68.7130 C.cat  83  ARG83       0.5346
     77  NH1       35.2840   10.3060   69.2310 N.pl3  83  ARG83       0.1354
     78  NH2       33.6320    8.7140   69.1890 N.pl3  83  ARG83       0.1354
     79  N         36.7960   19.6720   67.4120 N.3    90  PRO90      -0.2116
     80  CA        37.9930   18.9050   67.0620 C.3    90  PRO90       0.1372
     81  C         39.0880   19.0320   68.1130 C.2    90  PRO90       0.2244
     82  O         40.1470   19.5890   67.8230 O.2    90  PRO90      -0.2868
     83  CB        38.4650   19.5780   65.7680 C.3    90  PRO90       0.0268
     84  CG        37.4670   20.6890   65.4970 C.3    90  PRO90       0.0207
     85  CD        36.8130   21.0110   66.8060 C.3    90  PRO90       0.0892
     86  N         41.3200   16.9460   69.4960 N.3    92  ASN92      -0.1225
     87  CA        42.5650   16.3670   69.0020 C.3    92  ASN92       0.1785
     88  C         43.4880   17.3250   68.2540 C.2    92  ASN92       0.2597
     89  O         44.7090   17.1970   68.3110 O.2    92  ASN92      -0.2718
     90  CB        42.2340   15.1980   68.0750 C.3    92  ASN92       0.1169
     91  CG        41.5040   15.6430   66.8220 C.2    92  ASN92       0.2627
     92  OD1       40.7680   16.6310   66.8360 O.2    92  ASN92      -0.2716
     93  ND2       41.7090   14.9200   65.7300 N.am   92  ASN92      -0.0877
     94  N         42.8930   18.2860   67.5590 N.am   93  LEU93      -0.1980
     95  CA        43.6330   19.1860   66.6830 C.3    93  LEU93       0.1596
     96  C         44.4120   20.2910   67.3890 C.2    93  LEU93       0.2287
     97  O         45.1890   21.0060   66.7560 O.2    93  LEU93      -0.2864
     98  CB        42.6640   19.8060   65.6760 C.3    93  LEU93       0.0297
     99  CG        43.1250   19.7650   64.2260 C.3    93  LEU93       0.0022
    100  CD1       44.0910   18.6200   64.0390 C.3    93  LEU93       0.0001
    101  CD2       41.9320   19.6080   63.3100 C.3    93  LEU93       0.0001
    102  N         42.0900   11.5990   69.3000 N.3   102  MET102     -0.1231
    103  CA        41.9930   11.5150   67.8520 C.3   102  MET102      0.1687
    104  C         41.0590   10.3810   67.4490 C.2   102  MET102      0.2434
    105  O         41.1930    9.2550   67.9250 O.2   102  MET102     -0.2733
    106  CB        43.3770   11.3300   67.2280 C.3   102  MET102      0.0400
    107  CG        43.3780   11.4010   65.7140 C.3   102  MET102      0.0596
    108  SD        44.9090   12.0770   65.0480 S.3   102  MET102     -0.1393
    109  CE        44.7440   13.8060   65.4970 C.3   102  MET102      0.0692
    110  N         40.1070   10.6870   66.5740 N.am  103  PRO103     -0.2729
    111  CA        39.1250    9.7000   66.1230 C.3   103  PRO103      0.1401
    112  C         39.7520    8.6350   65.2410 C.2   103  PRO103      0.2269
    113  O         40.7290    8.8970   64.5390 O.2   103  PRO103     -0.2865
    114  CB        38.1500   10.5310   65.2830 C.3   103  PRO103      0.0296
    115  CG        38.4520   11.9480   65.6100 C.3   103  PRO103      0.0237
    116  CD        39.9020   12.0020   65.9480 C.3   103  PRO103      0.0939
    117  N         39.3630    5.9050   62.0360 N.3   105  LEU105     -0.1245
    118  CA        38.7740    6.1080   60.7190 C.3   105  LEU105      0.1561
    119  C         37.3280    5.6400   60.7030 C.2   105  LEU105      0.2260
    120  O         36.5230    6.0990   59.8960 O.2   105  LEU105     -0.2867
    121  CB        39.5750    5.3690   59.6520 C.3   105  LEU105      0.0270
    122  CG        41.0150    5.8460   59.4750 C.3   105  LEU105      0.0019
    123  CD1       41.7140    5.0530   58.3870 C.3   105  LEU105      0.0001
    124  CD2       41.0390    7.3270   59.1560 C.3   105  LEU105      0.0001
    125  N         34.5750    8.4190   61.5300 N.3   108  LEU108     -0.1245
    126  CA        34.3980    9.5550   60.6350 C.3   108  LEU108      0.1561
    127  C         33.4370    9.1820   59.5180 C.2   108  LEU108      0.2260
    128  O         33.5570    8.1150   58.9190 O.2   108  LEU108     -0.2867
    129  CB        35.7350    9.9990   60.0410 C.3   108  LEU108      0.0270
    130  CG        36.6990   10.7300   60.9740 C.3   108  LEU108      0.0019
    131  CD1       37.9790   11.0730   60.2350 C.3   108  LEU108      0.0001
    132  CD2       36.0500   11.9800   61.5370 C.3   108  LEU108      0.0001
@<TRIPOS>BOND
     1     1     2    1
     2     3     4    2
     3     3     2    1
     4    13    14    1
     5    15    16    2
     6    15    14    1
     7     2     5    1
     8    14    17    1
     9     7     9   ar
    10     7     6   ar
    11     5     6    1
    12    36    35    2
    13     9    11   ar
    14    35    34    1
    15     6     8   ar
    16    19    21   ar
    17    19    18   ar
    18    25    26    1
    19    17    18    1
    20    41    42    1
    21    21    23   ar
    22    18    20   ar
    23    37    34    1
    24    37    38    1
    25    11    12    1
    26    11    10   ar
    27    34    33    1
    28    33    27   am
    29     8    10   ar
    30    23    24    1
    31    23    22   ar
    32    27    26    1
    33    27    28    2
    34    26    29    1
    35    42    43    1
    36    20    22   ar
    37    49    46    1
    38    39    38    1
    39    38    40    1
    40    45    43   am
    41    45    46    1
    42    57    55   am
    43    43    44    2
    44    56    55    2
    45    29    31    1
    46    29    30    1
    47    46    47    1
    48    55    54    1
    49    50    47   am
    50    50    51    1
    51    47    48    2
    52    30    32    1
    53    54    51    1
    54    51    52    1
    55   123   122    1
    56   128   127    2
    57   124   122    1
    58    52    53    2
    59    52    58   am
    60   122   121    1
    61   127   126    1
    62   121   118    1
    63   120   119    2
    64   129   126    1
    65   129   130    1
    66    58    59    1
    67   131   130    1
    68   126   125    1
    69   119   118    1
    70   118   117    1
    71    65    67   ar
    72    65    63   ar
    73   130   132    1
    74    67    66   ar
    75    61    60    2
    76    59    60    1
    77    59    62    1
    78    63    62    1
    79    63    64   ar
    80    60    68   am
    81    66    64   ar
    82   101    99    1
    83    68    69    1
    84   100    99    1
    85    69    70    1
    86    69    72    1
    87    99    98    1
    88    70    71    2
    89   113   112    2
    90   108   109    1
    91   108   107    1
    92   112   111    1
    93   114   115    1
    94   114   111    1
    95    72    73    1
    96    84    83    1
    97    84    85    1
    98   115   116    1
    99    98    95    1
   100   107   106    1
   101    93    91   am
   102    83    80    1
   103    73    74    1
   104   116   110    1
   105   111   110    1
   106   110   104   am
   107    95    96    1
   108    95    94    1
   109    97    96    2
   110    85    79    1
   111    91    92    2
   112    91    90    1
   113    80    79    1
   114    80    81    1
   115    74    75    1
   116   106   103    1
   117   104   103    1
   118   104   105    2
   119    94    88   am
   120    75    76    2
   121    82    81    2
   122   103   102    1
   123    90    87    1
   124    88    89    2
   125    88    87    1
   126    76    78    1
   127    76    77    1
   128    87    86    1
