@<TRIPOS>MOLECULE
tmp/1mrnA00.pdb
 252 243 0 0 0
SMALL
GASTEIGER

@<TRIPOS>ATOM
      1  N         21.0470   16.8860   13.5290 N.3     9  ASP9       -0.1239
      2  CA        21.5130   17.8380   12.5460 C.3     9  ASP9        0.1674
      3  C         21.3060   19.2690   13.0190 C.2     9  ASP9        0.2266
      4  O         20.2840   19.5930   13.6180 O.2     9  ASP9       -0.2867
      5  CB        20.8090   17.5690   11.2170 C.3     9  ASP9        0.1410
      6  CG        21.3050   16.2780   10.5460 C.2     9  ASP9        0.3668
      7  OD1       22.4400   16.2730   10.0010 O.co2   9  ASP9       -0.2456
      8  OD2       20.5650   15.2650   10.5790 O.co2   9  ASP9       -0.2456
      9  N         27.7370   20.3390   16.2480 N.3    13  LYS13      -0.1231
     10  CA        28.8610   19.4220   16.3510 C.3    13  LYS13       0.1693
     11  C         30.1000   19.9800   15.6580 C.2    13  LYS13       0.2591
     12  O         31.1370   20.1200   16.2850 O.2    13  LYS13      -0.2718
     13  CB        28.5040   18.0730   15.7380 C.3    13  LYS13       0.0285
     14  CG        27.3830   17.3190   16.4420 C.3    13  LYS13       0.0035
     15  CD        27.1420   15.9670   15.7540 C.3    13  LYS13       0.0206
     16  CE        26.7290   16.1340   14.2990 C.3    13  LYS13       0.1093
     17  NZ        25.4080   16.8130   14.1850 N.3    13  LYS13      -0.1314
     18  N         29.9880   20.2890   14.3690 N.am   14  ARG14      -0.1980
     19  CA        31.1130   20.8230   13.6040 C.3    14  ARG14       0.1597
     20  C         31.8890   21.8970   14.3820 C.2    14  ARG14       0.2287
     21  O         33.1260   21.8810   14.4280 O.2    14  ARG14      -0.2864
     22  CB        30.6170   21.3850   12.2620 C.3    14  ARG14       0.0334
     23  CG        31.6660   22.1910   11.5040 C.3    14  ARG14       0.0492
     24  CD        31.3200   22.3930   10.0190 C.3    14  ARG14       0.2205
     25  NE        30.0300   23.0510    9.7700 N.pl3  14  ARG14      -0.0865
     26  CZ        29.6850   24.2560   10.2270 C.cat  14  ARG14       0.5346
     27  NH1       30.5310   24.9600   10.9740 N.pl3  14  ARG14       0.1354
     28  NH2       28.4960   24.7720    9.9170 N.pl3  14  ARG14       0.1354
     29  N         32.5910   12.2600    9.5980 N.3    36  PHE36      -0.1228
     30  CA        31.8570   11.2670    8.8320 C.3    36  PHE36       0.1721
     31  C         30.5140   11.8790    8.5320 C.2    36  PHE36       0.2437
     32  O         29.9300   12.5310    9.3890 O.2    36  PHE36      -0.2733
     33  CB        31.6870    9.9800    9.6360 C.3    36  PHE36       0.0547
     34  CG        32.9390    9.1680    9.7250 C.ar   36  PHE36      -0.0202
     35  CD1       33.4030    8.4660    8.6110 C.ar   36  PHE36      -0.0042
     36  CD2       33.6900    9.1460   10.9030 C.ar   36  PHE36      -0.0042
     37  CE1       34.6040    7.7530    8.6690 C.ar   36  PHE36      -0.0003
     38  CE2       34.8800    8.4430   10.9670 C.ar   36  PHE36      -0.0003
     39  CZ        35.3410    7.7430    9.8460 C.ar   36  PHE36      -0.0000
     40  N         29.9940   11.6630    7.3180 N.am   37  PRO37      -0.2729
     41  CA        30.5760   10.8670    6.2290 C.3    37  PRO37       0.1401
     42  C         31.7950   11.5160    5.5900 C.2    37  PRO37       0.2269
     43  O         31.9020   12.7440    5.5480 O.2    37  PRO37      -0.2865
     44  CB        29.4160   10.7380    5.2270 C.3    37  PRO37       0.0296
     45  CG        28.1850   11.0540    6.0360 C.3    37  PRO37       0.0237
     46  CD        28.6600   12.1520    6.9410 C.3    37  PRO37       0.0939
     47  N         32.9720   12.6350    2.7220 N.3    39  TYR39      -0.1241
     48  CA        32.6270   13.0500    1.3730 C.3    39  TYR39       0.1605
     49  C         33.8750   13.2650    0.5340 C.2    39  TYR39       0.2264
     50  O         34.8420   13.9030    0.9820 O.2    39  TYR39      -0.2867
     51  CB        31.7970   14.3310    1.4250 C.3    39  TYR39       0.0534
     52  CG        30.5010   14.1700    2.1870 C.ar   39  TYR39      -0.0201
     53  CD1       29.6100   13.1490    1.8600 C.ar   39  TYR39      -0.0009
     54  CD2       30.1560   15.0400    3.2260 C.ar   39  TYR39      -0.0009
     55  CE1       28.4140   12.9930    2.5370 C.ar   39  TYR39       0.0417
     56  CE2       28.9520   14.8920    3.9160 C.ar   39  TYR39       0.0417
     57  CZ        28.0880   13.8630    3.5630 C.ar   39  TYR39       0.1957
     58  OH        26.8960   13.6740    4.2230 O.3    39  TYR39      -0.2866
     59  N         29.3830    9.4520   -0.5620 N.3    46  ASP46      -0.1239
     60  CA        28.8470   10.3550   -1.5650 C.3    46  ASP46       0.1674
     61  C         27.5320    9.8360   -2.1090 C.2    46  ASP46       0.2266
     62  O         26.5840   10.6040   -2.2810 O.2    46  ASP46      -0.2867
     63  CB        29.8520   10.5650   -2.6990 C.3    46  ASP46       0.1410
     64  CG        31.0980   11.3090   -2.2390 C.2    46  ASP46       0.3668
     65  OD1       30.9940   12.0880   -1.2700 O.co2  46  ASP46      -0.2456
     66  OD2       32.1720   11.1210   -2.8510 O.co2  46  ASP46      -0.2456
     67  N         24.7010   10.4430    0.5310 N.3    49  ALA49      -0.1231
     68  CA        24.1810   11.8070    0.6170 C.3    49  ALA49       0.1694
     69  C         23.4510   12.2390   -0.6380 C.2    49  ALA49       0.2591
     70  O         22.4410   12.9270   -0.5750 O.2    49  ALA49      -0.2718
     71  CB        25.3080   12.7860    0.9140 C.3    49  ALA49       0.0304
     72  N         23.9710   11.8490   -1.7870 N.am   50  GLU50      -0.1979
     73  CA        23.3250   12.2150   -3.0290 C.3    50  GLU50       0.1602
     74  C         21.9400   11.5880   -3.0120 C.2    50  GLU50       0.2287
     75  O         20.9720   12.1890   -3.4910 O.2    50  GLU50      -0.2864
     76  CB        24.1410   11.7060   -4.2050 C.3    50  GLU50       0.0415
     77  CG        25.5270   12.3140   -4.2560 C.3    50  GLU50       0.1163
     78  CD        26.4310   11.6280   -5.2470 C.2    50  GLU50       0.3649
     79  OE1       26.0180   10.6100   -5.8390 O.co2  50  GLU50      -0.2457
     80  OE2       27.5600   12.1120   -5.4280 O.co2  50  GLU50      -0.2457
     81  N         20.2800   10.9920   -0.2870 N.3    52  LEU52      -0.1231
     82  CA        19.5210   11.7920    0.6690 C.3    52  LEU52       0.1693
     83  C         19.0770   13.0840   -0.0050 C.2    52  LEU52       0.2592
     84  O         18.1950   13.7690    0.4860 O.2    52  LEU52      -0.2718
     85  CB        20.3550   12.1360    1.9020 C.3    52  LEU52       0.0284
     86  CG        20.7210   11.0490    2.9070 C.3    52  LEU52       0.0019
     87  CD1       21.4720   11.6860    4.0460 C.3    52  LEU52       0.0001
     88  CD2       19.4750   10.3590    3.4200 C.3    52  LEU52       0.0001
     89  N         19.7090   13.4240   -1.1250 N.am   53  HIS53      -0.1976
     90  CA        19.3350   14.6260   -1.8630 C.3    53  HIS53       0.1656
     91  C         18.4450   14.2850   -3.0530 C.2    53  HIS53       0.2291
     92  O         18.3160   15.0790   -3.9750 O.2    53  HIS53      -0.2864
     93  CB        20.5690   15.4040   -2.3380 C.3    53  HIS53       0.0771
     94  CG        21.1240   16.3420   -1.3120 C.ar   53  HIS53       0.0820
     95  ND1       21.7560   15.9080   -0.1670 N.ar   53  HIS53      -0.2267
     96  CD2       21.1170   17.6950   -1.2460 C.ar   53  HIS53       0.1154
     97  CE1       22.1130   16.9530    0.5590 C.ar   53  HIS53       0.1986
     98  NE2       21.7370   18.0480   -0.0740 N.ar   53  HIS53      -0.2212
     99  N         18.6960   11.3430   -5.1060 N.3    55  GLU55      -0.1245
    100  CA        19.2400   10.5480   -6.1960 C.3    55  GLU55       0.1567
    101  C         19.3310    9.0600   -5.9410 C.2    55  GLU55       0.2260
    102  O         19.0400    8.5730   -4.8390 O.2    55  GLU55      -0.2867
    103  CB        20.6170   11.0580   -6.5810 C.3    55  GLU55       0.0388
    104  CG        20.6320   12.5290   -6.8290 C.3    55  GLU55       0.1160
    105  CD        21.6910   12.9110   -7.8090 C.2    55  GLU55       0.3649
    106  OE1       21.5150   12.5940   -9.0020 O.co2  55  GLU55      -0.2457
    107  OE2       22.6980   13.5150   -7.3890 O.co2  55  GLU55      -0.2457
    108  N         26.9960    4.0990    5.2380 N.3    70  PHE70      -0.1241
    109  CA        27.7370    4.8380    6.2560 C.3    70  PHE70       0.1605
    110  C         28.6920    3.9460    7.0230 C.2    70  PHE70       0.2264
    111  O         29.6500    4.4300    7.6250 O.2    70  PHE70      -0.2867
    112  CB        26.7790    5.5610    7.2100 C.3    70  PHE70       0.0534
    113  CG        26.0300    6.6710    6.5500 C.ar   70  PHE70      -0.0203
    114  CD1       26.7260    7.7090    5.9230 C.ar   70  PHE70      -0.0042
    115  CD2       24.6340    6.6670    6.5060 C.ar   70  PHE70      -0.0042
    116  CE1       26.0430    8.7340    5.2550 C.ar   70  PHE70      -0.0003
    117  CE2       23.9310    7.6830    5.8440 C.ar   70  PHE70      -0.0003
    118  CZ        24.6500    8.7280    5.2130 C.ar   70  PHE70      -0.0000
    119  N         33.0970    4.1630    6.8300 N.3    74  ARG74      -0.1245
    120  CA        33.9680    4.0130    7.9770 C.3    74  ARG74       0.1563
    121  C         34.8680    2.7870    7.8330 C.2    74  ARG74       0.2260
    122  O         36.0200    2.8240    8.2470 O.2    74  ARG74      -0.2867
    123  CB        33.1420    3.9200    9.2580 C.3    74  ARG74       0.0307
    124  CG        32.5710    5.2460    9.6950 C.3    74  ARG74       0.0489
    125  CD        31.9540    5.1530   11.0770 C.3    74  ARG74       0.2205
    126  NE        30.6620    4.4830   11.0740 N.pl3  74  ARG74      -0.0865
    127  CZ        29.5150    5.0660   10.7360 C.cat  74  ARG74       0.5346
    128  NH1       29.5000    6.3350   10.3720 N.pl3  74  ARG74       0.1354
    129  NH2       28.3790    4.3860   10.7780 N.pl3  74  ARG74       0.1354
    130  N         33.6550   13.8740   14.1250 N.3    94  ASP94      -0.1225
    131  CA        32.4100   14.6070   13.9260 C.3    94  ASP94       0.1805
    132  C         31.4610   13.5480   13.4030 C.2    94  ASP94       0.2598
    133  O         31.3980   13.3350   12.1960 O.2    94  ASP94      -0.2718
    134  CB        32.6000   15.6890   12.8620 C.3    94  ASP94       0.1424
    135  CG        31.4080   16.6190   12.7630 C.2    94  ASP94       0.3668
    136  OD1       30.2680   16.1470   12.9880 O.co2  94  ASP94      -0.2456
    137  OD2       31.6130   17.8140   12.4520 O.co2  94  ASP94      -0.2456
    138  N         30.7350   12.8970   14.3120 N.am   95  ARG95      -0.1966
    139  CA        29.8230   11.7920   13.9810 C.3    95  ARG95       0.1729
    140  C         30.6200   10.4890   13.8570 C.2    95  ARG95       0.2616
    141  O         31.7080   10.4700   13.2680 O.2    95  ARG95      -0.2715
    142  CB        29.0950   11.9970   12.6420 C.3    95  ARG95       0.0348
    143  CG        27.9390   12.9460   12.6510 C.3    95  ARG95       0.0492
    144  CD        27.1270   12.7530   11.3810 C.3    95  ARG95       0.2205
    145  NE        25.8570   13.4650   11.4180 N.pl3  95  ARG95      -0.0865
    146  CZ        24.9410   13.3410   12.3750 C.cat  95  ARG95       0.5346
    147  NH1       25.1430   12.5260   13.4040 N.pl3  95  ARG95       0.1354
    148  NH2       23.8090   14.0310   12.2900 N.pl3  95  ARG95       0.1354
    149  N         30.0690    9.4010   14.3920 N.am   96  TYR96      -0.1974
    150  CA        30.7310    8.1040   14.3090 C.3    96  TYR96       0.1639
    151  C         29.7030    6.9650   14.1900 C.2    96  TYR96       0.2290
    152  O         28.6340    7.1490   13.5970 O.2    96  TYR96      -0.2864
    153  CB        31.6440    7.9120   15.5250 C.3    96  TYR96       0.0560
    154  CG        32.6850    6.8380   15.3450 C.ar   96  TYR96      -0.0198
    155  CD1       33.2680    6.6110   14.1040 C.ar   96  TYR96      -0.0009
    156  CD2       33.0820    6.0390   16.4100 C.ar   96  TYR96      -0.0009
    157  CE1       34.2180    5.6120   13.9230 C.ar   96  TYR96       0.0417
    158  CE2       34.0350    5.0390   16.2420 C.ar   96  TYR96       0.0417
    159  CZ        34.5980    4.8330   15.0040 C.ar   96  TYR96       0.1957
    160  OH        35.5790    3.8820   14.8490 O.3    96  TYR96      -0.2866
    161  N         25.9560    7.3230   15.2630 N.3    99  SER99      -0.1202
    162  CA        25.0370    8.0260   14.3670 C.3    99  SER99       0.2020
    163  C         24.1510    7.0550   13.5910 C.2    99  SER99       0.2618
    164  O         22.9470    7.2860   13.4380 O.2    99  SER99      -0.2717
    165  CB        25.8090    8.9280   13.4050 C.3    99  SER99       0.2103
    166  OG        26.2900   10.0830   14.0720 O.3    99  SER99      -0.2182
    167  N         24.7460    5.9680   13.1130 N.am  100  ASN100     -0.1974
    168  CA        24.0000    4.9520   12.3820 C.3   100  ASN100      0.1688
    169  C         22.8970    4.3200   13.2540 C.2   100  ASN100      0.2292
    170  O         21.8070    4.0190   12.7730 O.2   100  ASN100     -0.2864
    171  CB        24.9560    3.8700   11.8880 C.3   100  ASN100      0.1181
    172  CG        24.9900    3.7740   10.3790 C.2   100  ASN100      0.2629
    173  OD1       24.3230    4.5350    9.6790 O.2   100  ASN100     -0.2716
    174  ND2       25.7760    2.8320    9.8670 N.am  100  ASN100     -0.0877
    175  N         20.0570    7.3250   14.0110 N.3   103  TYR103     -0.1227
    176  CA        19.2070    7.6210   12.8620 C.3   103  TYR103      0.1736
    177  C         18.4280    6.4190   12.3260 C.2   103  TYR103      0.2596
    178  O         17.2330    6.5380   12.0020 O.2   103  TYR103     -0.2718
    179  CB        20.0220    8.2690   11.7320 C.3   103  TYR103      0.0548
    180  CG        20.3390    9.7290   11.9970 C.ar  103  TYR103     -0.0200
    181  CD1       21.3910   10.0970   12.8460 C.ar  103  TYR103     -0.0009
    182  CD2       19.5470   10.7460   11.4480 C.ar  103  TYR103     -0.0009
    183  CE1       21.6440   11.4470   13.1470 C.ar  103  TYR103      0.0417
    184  CE2       19.7920   12.0990   11.7430 C.ar  103  TYR103      0.0417
    185  CZ        20.8390   12.4380   12.5940 C.ar  103  TYR103      0.1957
    186  OH        21.0600   13.7670   12.9130 O.3   103  TYR103     -0.2866
    187  N         19.0900    5.2690   12.2320 N.am  104  SER104     -0.1952
    188  CA        18.4270    4.0610   11.7470 C.3   104  SER104      0.1924
    189  C         17.2770    3.7170   12.6920 C.2   104  SER104      0.2314
    190  O         16.1540    3.4740   12.2640 O.2   104  SER104     -0.2863
    191  CB        19.4150    2.8920   11.6840 C.3   104  SER104      0.2116
    192  OG        20.4440    3.1430   10.7410 O.3   104  SER104     -0.2180
    193  N         21.1050   27.3330    7.7980 N.3   153  ARG153     -0.1245
    194  CA        22.2880   26.8940    7.0700 C.3   153  ARG153      0.1563
    195  C         21.9800   26.7610    5.5670 C.2   153  ARG153      0.2260
    196  O         22.7080   27.2830    4.7250 O.2   153  ARG153     -0.2867
    197  CB        22.7730   25.5620    7.6600 C.3   153  ARG153      0.0307
    198  CG        24.2000   25.2080    7.3510 C.3   153  ARG153      0.0489
    199  CD        24.9340   24.8300    8.6340 C.3   153  ARG153      0.2205
    200  NE        24.5010   23.5360    9.1500 N.pl3 153  ARG153     -0.0865
    201  CZ        24.7000   23.1000   10.3920 C.cat 153  ARG153      0.5346
    202  NH1       25.3370   23.8450   11.2890 N.pl3 153  ARG153      0.1354
    203  NH2       24.2400   21.9070   10.7360 N.pl3 153  ARG153      0.1354
    204  N         24.7590   27.0150   -2.8030 N.3   159  GLY159     -0.1210
    205  CA        24.9020   25.6430   -3.2520 C.3   159  GLY159      0.1956
    206  C         24.7930   24.7990   -2.0000 C.2   159  GLY159      0.2612
    207  O         25.8040   24.3430   -1.4520 O.2   159  GLY159     -0.2717
    208  N         23.5640   24.5990   -1.5400 N.am  160  ARG160     -0.1965
    209  CA        23.3310   23.8500   -0.3150 C.3   160  ARG160      0.1729
    210  C         21.8370   23.5520   -0.1770 C.2   160  ARG160      0.2616
    211  O         21.0170   24.0690   -0.9380 O.2   160  ARG160     -0.2715
    212  CB        23.8130   24.6890    0.8680 C.3   160  ARG160      0.0348
    213  CG        23.8520   23.9910    2.2050 C.3   160  ARG160      0.0492
    214  CD        23.7640   25.0440    3.2960 C.3   160  ARG160      0.2205
    215  NE        24.7530   24.8980    4.3620 N.pl3 160  ARG160     -0.0865
    216  CZ        26.0700   24.9380    4.1790 C.cat 160  ARG160      0.5346
    217  NH1       26.5730   25.1100    2.9590 N.pl3 160  ARG160      0.1354
    218  NH2       26.8860   24.8280    5.2240 N.pl3 160  ARG160      0.1354
    219  N         21.4850   22.7230    0.7970 N.am  161  ALA161     -0.1977
    220  CA        20.0940   22.3660    1.0030 C.3   161  ALA161      0.1597
    221  C         19.9940   21.2650    2.0270 C.2   161  ALA161      0.2287
    222  O         20.8600   20.3910    2.0870 O.2   161  ALA161     -0.2864
    223  CB        19.4840   21.8860   -0.3030 C.3   161  ALA161      0.0319
    224  N         18.6740   17.8380    3.6480 N.3   163  ASP163     -0.1239
    225  CA        18.4270   16.5930    2.9470 C.3   163  ASP163      0.1674
    226  C         17.1870   15.9510    3.5330 C.2   163  ASP163      0.2266
    227  O         16.5200   16.5510    4.3970 O.2   163  ASP163     -0.2867
    228  CB        19.6370   15.6560    3.0340 C.3   163  ASP163      0.1410
    229  CG        20.1390   15.4420    4.4650 C.2   163  ASP163      0.3668
    230  OD1       19.3450   15.0240    5.3340 O.co2 163  ASP163     -0.2456
    231  OD2       21.3440   15.6700    4.7180 O.co2 163  ASP163     -0.2456
    232  N         16.7150   13.7270    5.6880 N.3   165  TYR165     -0.1227
    233  CA        16.6950   13.5880    7.1360 C.3   165  TYR165      0.1736
    234  C         16.4650   14.9250    7.8460 C.2   165  TYR165      0.2595
    235  O         15.7050   14.9990    8.8090 O.2   165  TYR165     -0.2718
    236  CB        18.0080   12.9700    7.6210 C.3   165  TYR165      0.0548
    237  CG        18.2520   11.5230    7.1980 C.ar  165  TYR165     -0.0200
    238  CD1       17.2740   10.7800    6.5140 C.ar  165  TYR165     -0.0009
    239  CD2       19.4450   10.8820    7.5390 C.ar  165  TYR165     -0.0009
    240  CE1       17.4790    9.4370    6.1910 C.ar  165  TYR165      0.0417
    241  CE2       19.6620    9.5400    7.2180 C.ar  165  TYR165      0.0417
    242  CZ        18.6790    8.8260    6.5510 C.ar  165  TYR165      0.1957
    243  OH        18.9110    7.5090    6.2670 O.3   165  TYR165     -0.2866
    244  N         17.1230   15.9750    7.3630 N.am  166  GLU166     -0.1979
    245  CA        17.0000   17.3030    7.9500 C.3   166  GLU166      0.1602
    246  C         15.6190   17.9300    7.6970 C.2   166  GLU166      0.2287
    247  O         15.1710   18.7790    8.4540 O.2   166  GLU166     -0.2864
    248  CB        18.1260   18.1930    7.4030 C.3   166  GLU166      0.0415
    249  CG        19.5000   17.5720    7.6170 C.3   166  GLU166      0.1163
    250  CD        20.6000   18.1980    6.7920 C.2   166  GLU166      0.3649
    251  OE1       20.3750   18.5080    5.6090 O.co2 166  GLU166     -0.2457
    252  OE2       21.7130   18.3570    7.3170 O.co2 166  GLU166     -0.2457
@<TRIPOS>BOND
     1   106   105   ar
     2   105   107   ar
     3   105   104    1
     4   104   103    1
     5   103   100    1
     6   100   101    1
     7   100    99    1
     8   101   102    2
     9    79    78   ar
    10    80    78   ar
    11    78    77    1
    12    77    76    1
    13    76    73    1
    14    92    91    2
    15    75    74    2
    16   205   204    1
    17   205   206    1
    18    91    90    1
    19    73    74    1
    20    73    72    1
    21    66    64   ar
    22    63    64    1
    23    63    60    1
    24    93    90    1
    25    93    94    1
    26    62    61    2
    27    64    65   ar
    28    61    60    1
    29   206   208   am
    30   206   207    2
    31    90    89    1
    32    72    69   am
    33    60    59    1
    34   208   209    1
    35    94    96   ar
    36    94    95   ar
    37    96    98   ar
    38    89    83   am
    39   211   210    2
    40    69    70    2
    41    69    68    1
    42   209   210    1
    43   209   212    1
    44   223   220    1
    45    81    82    1
    46   210   219   am
    47    95    97   ar
    48    98    97   ar
    49    83    84    2
    50    83    82    1
    51    67    68    1
    52    49    50    2
    53    49    48    1
    54    68    71    1
    55    82    85    1
    56   219   220    1
    57   212   213    1
    58   220   221    1
    59    48    51    1
    60    48    47    1
    61    51    52    1
    62    53    52   ar
    63    53    55   ar
    64    85    86    1
    65   221   222    2
    66    52    54   ar
    67   213   214    1
    68    55    57   ar
    69    86    88    1
    70    86    87    1
    71   225   228    1
    72   225   226    1
    73   225   224    1
    74   217   216    1
    75   228   229    1
    76    54    56   ar
    77   214   215    1
    78   226   227    2
    79    57    56   ar
    80    57    58    1
    81   216   215    2
    82   216   218    1
    83   229   231   ar
    84   229   230   ar
    85   196   195    2
    86   118   116   ar
    87   118   117   ar
    88    44    45    1
    89    44    41    1
    90   108   109    1
    91   116   114   ar
    92    43    42    2
    93   195   194    1
    94    42    41    1
    95   251   250   ar
    96   232   233    1
    97   117   115   ar
    98   114   113   ar
    99    45    46    1
   100   240   238   ar
   101   240   242   ar
   102    41    40    1
   103   109   110    1
   104   109   112    1
   105   243   242    1
   106   115   113   ar
   107   238   237   ar
   108   113   112    1
   109   242   241   ar
   110   250   252   ar
   111   250   249    1
   112   119   120    1
   113    46    40    1
   114   110   111    2
   115   194   197    1
   116   194   193    1
   117   233   236    1
   118   233   234    1
   119   237   239   ar
   120   237   236    1
   121   241   239   ar
   122    40    31   am
   123   198   197    1
   124   198   199    1
   125   244   234   am
   126   244   245    1
   127   248   249    1
   128   248   245    1
   129   246   245    1
   130   246   247    2
   131   121   120    1
   132   121   122    2
   133   234   235    2
   134   120   123    1
   135    31    30    1
   136    31    32    2
   137    35    37   ar
   138    35    34   ar
   139   199   200    1
   140    37    39   ar
   141    30    29    1
   142    30    33    1
   143   200   201    2
   144   123   124    1
   145    33    34    1
   146   173   172    2
   147   124   125    1
   148    34    36   ar
   149    25    24    1
   150    25    26    2
   151    39    38   ar
   152   174   172   am
   153    28    26    1
   154     7     6   ar
   155    24    23    1
   156    26    27    1
   157   128   127    1
   158   172   171    1
   159   201   203    1
   160   201   202    1
   161     6     8   ar
   162     6     5    1
   163   127   129    1
   164   127   126    2
   165   192   191    1
   166    36    38   ar
   167   126   125    1
   168     5     2    1
   169   144   145    1
   170   144   143    1
   171   145   146    2
   172   182   184   ar
   173   182   180   ar
   174    23    22    1
   175   191   188    1
   176   179   180    1
   177   179   176    1
   178   184   185   ar
   179   188   187    1
   180   188   189    1
   181   171   168    1
   182   180   181   ar
   183   178   177    2
   184   133   132    2
   185   187   177   am
   186    22    19    1
   187   190   189    2
   188   148   146    1
   189   177   176    1
   190   146   147    1
   191   168   167    1
   192   168   169    1
   193   137   135   ar
   194     2     3    1
   195     2     1    1
   196   185   186    1
   197   185   183   ar
   198   142   143    1
   199   142   139    1
   200   135   134    1
   201   135   136   ar
   202   170   169    2
   203   181   183   ar
   204   134   131    1
   205   176   175    1
   206     3     4    2
   207   167   163   am
   208   141   140    2
   209   132   131    1
   210   132   138   am
   211   165   166    1
   212   165   162    1
   213   164   163    2
   214   163   162    1
   215   152   151    2
   216    19    18    1
   217    19    20    1
   218   140   139    1
   219   140   149   am
   220   157   155   ar
   221   157   159   ar
   222   131   130    1
   223   139   138    1
   224   155   154   ar
   225    17    16    1
   226   151   150    1
   227    16    15    1
   228   150   149    1
   229   150   153    1
   230   162   161    1
   231    18    11   am
   232    20    21    2
   233   160   159    1
   234   159   158   ar
   235   154   153    1
   236   154   156   ar
   237    11    12    2
   238    11    10    1
   239    13    10    1
   240    13    14    1
   241    15    14    1
   242   158   156   ar
   243     9    10    1
