@<TRIPOS>MOLECULE
tmp/1mrxA00.pdb
 115 109 0 0 0
SMALL
GASTEIGER

@<TRIPOS>ATOM
      1  N          2.7280   23.7250   17.2720 N.3     8  ARG8       -0.1245
      2  CA         3.8930   24.4060   16.7100 C.3     8  ARG8        0.1563
      3  C          3.5340   25.8050   16.2300 C.2     8  ARG8        0.2260
      4  O          2.5350   25.9930   15.5330 O.2     8  ARG8       -0.2867
      5  CB         4.4790   23.5820   15.5600 C.3     8  ARG8        0.0307
      6  CG         5.1440   22.2980   16.0250 C.3     8  ARG8        0.0489
      7  CD         5.4780   21.3660   14.8730 C.3     8  ARG8        0.2205
      8  NE         6.1080   20.1350   15.3510 N.pl3   8  ARG8       -0.0865
      9  CZ         6.3360   19.0680   14.5910 C.cat   8  ARG8        0.5346
     10  NH1        5.9820   19.0750   13.3110 N.pl3   8  ARG8        0.1354
     11  NH2        6.9190   17.9950   15.1100 N.pl3   8  ARG8        0.1354
     12  N          8.8240   28.2130   11.5070 N.3    23  LEU23      -0.1245
     13  CA         8.6250   28.0510   12.9390 C.3    23  LEU23       0.1561
     14  C          9.2340   29.2150   13.7250 C.2    23  LEU23       0.2260
     15  O         10.4130   29.5190   13.5610 O.2    23  LEU23      -0.2867
     16  CB         9.2760   26.7300   13.3550 C.3    23  LEU23       0.0270
     17  CG         9.0200   26.1240   14.7230 C.3    23  LEU23       0.0019
     18  CD1        7.5260   25.8910   14.9110 C.3    23  LEU23       0.0001
     19  CD2        9.7880   24.8090   14.8310 C.3    23  LEU23       0.0001
     20  N         11.0190   30.2820   16.4010 N.3    25  ASP25      -0.1239
     21  CA        11.8810   29.5030   17.2910 C.3    25  ASP25       0.1674
     22  C         12.8450   30.2580   18.2210 C.2    25  ASP25       0.2266
     23  O         13.9180   30.6840   17.7990 O.2    25  ASP25      -0.2867
     24  CB        12.6480   28.5350   16.3830 C.3    25  ASP25       0.1410
     25  CG        13.5430   27.5860   17.1340 C.2    25  ASP25       0.3668
     26  OD1       13.5020   27.5630   18.3810 O.co2  25  ASP25      -0.2456
     27  OD2       14.2920   26.8510   16.4460 O.co2  25  ASP25      -0.2456
     28  N         14.6280   29.0410   20.5470 N.3    27  GLY27      -0.1210
     29  CA        15.8110   28.2610   20.8640 C.3    27  GLY27       0.1956
     30  C         16.9020   28.4100   19.8160 C.2    27  GLY27       0.2612
     31  O         18.0520   28.0310   20.0430 O.2    27  GLY27      -0.2717
     32  N         16.5410   28.9700   18.6660 N.am   28  ALA28      -0.1965
     33  CA        17.4830   29.1460   17.5630 C.3    28  ALA28       0.1728
     34  C         18.1890   30.5010   17.5380 C.2    28  ALA28       0.2616
     35  O         17.5340   31.5400   17.5080 O.2    28  ALA28      -0.2715
     36  CB        16.7550   28.9250   16.2340 C.3    28  ALA28       0.0334
     37  N         19.5220   30.4900   17.5510 N.am   29  ASP29      -0.1957
     38  CA        20.2820   31.7450   17.4790 C.3    29  ASP29       0.1840
     39  C         20.1380   32.3170   16.0750 C.2    29  ASP29       0.2622
     40  O         20.0890   33.5390   15.8800 O.2    29  ASP29      -0.2715
     41  CB        21.7880   31.5280   17.6980 C.3    29  ASP29       0.1450
     42  CG        22.1180   30.9180   19.0420 C.2    29  ASP29       0.3671
     43  OD1       21.4380   31.2410   20.0350 O.co2  29  ASP29      -0.2456
     44  OD2       23.0860   30.1280   19.0990 O.co2  29  ASP29      -0.2456
     45  N         20.0900   31.4180   15.0960 N.am   30  ASP30      -0.1971
     46  CA        20.0140   31.8140   13.6930 C.3    30  ASP30       0.1709
     47  C         18.7010   31.4630   13.0130 C.2    30  ASP30       0.2293
     48  O         17.9050   30.6750   13.5210 O.2    30  ASP30      -0.2864
     49  CB        21.1450   31.1460   12.9040 C.3    30  ASP30       0.1436
     50  CG        22.4870   31.2140   13.6180 C.2    30  ASP30       0.3671
     51  OD1       22.9290   32.3260   13.9610 O.co2  30  ASP30      -0.2456
     52  OD2       23.1040   30.1480   13.8310 O.co2  30  ASP30      -0.2456
     53  N         17.2270   29.6880    9.8500 N.3    32  VAL32      -0.1245
     54  CA        17.6400   28.6990    8.8680 C.3    32  VAL32       0.1561
     55  C         16.4860   28.3390    7.9500 C.2    32  VAL32       0.2260
     56  O         15.4020   27.9740    8.4110 O.2    32  VAL32      -0.2867
     57  CB        18.1460   27.4160    9.5650 C.3    32  VAL32       0.0252
     58  CG1       18.8750   26.5340    8.5700 C.3    32  VAL32       0.0019
     59  CG2       19.0580   27.7900   10.7400 C.3    32  VAL32       0.0019
     60  N         26.2780   24.5550   11.5310 N.3    47  ILE47      -0.1231
     61  CA        25.4440   24.8040   12.6990 C.3    47  ILE47       0.1692
     62  C         24.9840   23.4850   13.2990 C.2    47  ILE47       0.2593
     63  O         24.7080   22.5240   12.5810 O.2    47  ILE47      -0.2718
     64  CB        24.2260   25.6870   12.3610 C.3    47  ILE47       0.0266
     65  CG1       23.3790   25.0380   11.2660 C.3    47  ILE47       0.0019
     66  CG2       24.7070   27.0780   11.9430 C.3    47  ILE47       0.0020
     67  CD1       22.0950   25.8090   10.9490 C.3    47  ILE47       0.0001
     68  N         24.9060   23.4370   14.6240 N.am   48  GLY48      -0.1942
     69  CA        24.5180   22.1980   15.2590 C.3    48  GLY48       0.2014
     70  C         23.4460   22.2940   16.3120 C.2    48  GLY48       0.2639
     71  O         23.3510   23.2770   17.0350 O.2    48  GLY48      -0.2714
     72  N         22.6400   21.2430   16.3850 N.am   49  GLY49      -0.1939
     73  CA        21.5690   21.1720   17.3610 C.3    49  GLY49       0.2014
     74  C         21.3090   19.6990   17.6290 C.2    49  GLY49       0.2638
     75  O         22.2340   18.8800   17.5950 O.2    49  GLY49      -0.2714
     76  N         20.0570   19.3610   17.8960 N.am   50  ILE50      -0.1977
     77  CA        19.6800   17.9820   18.1480 C.3    50  ILE50       0.1596
     78  C         19.9490   17.1710   16.8850 C.2    50  ILE50       0.2287
     79  O         19.4580   17.5160   15.8120 O.2    50  ILE50      -0.2864
     80  CB        18.1750   17.8660   18.4520 C.3    50  ILE50       0.0276
     81  CG1       17.8560   18.5020   19.8040 C.3    50  ILE50       0.0022
     82  CG2       17.7390   16.4050   18.3550 C.3    50  ILE50       0.0022
     83  CD1       18.3880   17.7560   20.9940 C.3    50  ILE50       0.0001
     84  N         17.8960   21.9800    6.1480 N.3    80  THR80      -0.1204
     85  CA        17.2040   21.9220    7.4290 C.3    80  THR80       0.1979
     86  C         15.8600   21.2150    7.2620 C.2    80  THR80       0.2460
     87  O         15.1620   21.4310    6.2740 O.2    80  THR80      -0.2732
     88  CB        16.9500   23.3330    8.0050 C.3    80  THR80       0.1783
     89  OG1       16.1490   23.2280    9.1850 O.3    80  THR80      -0.2211
     90  CG2       16.2250   24.2140    6.9960 C.3    80  THR80       0.0376
     91  N         15.4940   20.3410    8.2160 N.am   81  PRO81      -0.2717
     92  CA        14.2200   19.6120    8.1530 C.3    81  PRO81       0.1535
     93  C         13.0190   20.5530    8.2500 C.2    81  PRO81       0.2598
     94  O         11.9470   20.2470    7.7440 O.2    81  PRO81      -0.2715
     95  CB        14.3020   18.6640    9.3480 C.3    81  PRO81       0.0310
     96  CG        15.7730   18.4090    9.4710 C.3    81  PRO81       0.0237
     97  CD        16.3590   19.7850    9.2700 C.3    81  PRO81       0.0939
     98  N         13.2070   21.6920    8.9110 N.am   82  PHE82      -0.1974
     99  CA        12.1380   22.6790    9.0740 C.3    82  PHE82       0.1639
    100  C         12.6860   24.0960    8.9700 C.2    82  PHE82       0.2290
    101  O         13.8100   24.3710    9.3940 O.2    82  PHE82      -0.2864
    102  CB        11.4570   22.5560   10.4480 C.3    82  PHE82       0.0560
    103  CG        10.4920   21.4090   10.5740 C.ar   82  PHE82      -0.0200
    104  CD1       10.9460   20.0970   10.6620 C.ar   82  PHE82      -0.0042
    105  CD2        9.1220   21.6470   10.6540 C.ar   82  PHE82      -0.0042
    106  CE1       10.0540   19.0410   10.8400 C.ar   82  PHE82      -0.0003
    107  CE2        8.2190   20.5980   10.8300 C.ar   82  PHE82      -0.0003
    108  CZ         8.6870   19.2920   10.9220 C.ar   82  PHE82      -0.0000
    109  N         13.1580   27.6480   10.2220 N.3    84  VAL84      -0.1245
    110  CA        13.0260   28.2600   11.5380 C.3    84  VAL84       0.1561
    111  C         13.4280   29.7250   11.5590 C.2    84  VAL84       0.2260
    112  O         14.4450   30.1090   10.9920 O.2    84  VAL84      -0.2867
    113  CB        13.8450   27.4990   12.6360 C.3    84  VAL84       0.0252
    114  CG1       13.3890   26.0550   12.7200 C.3    84  VAL84       0.0019
    115  CG2       15.3420   27.5830   12.3600 C.3    84  VAL84       0.0019
@<TRIPOS>BOND
     1    84    85    1
     2    87    86    2
     3    90    88    1
     4    86    85    1
     5    86    91   am
     6    85    88    1
     7    94    93    2
     8    55    56    2
     9    55    54    1
    10    88    89    1
    11    92    91    1
    12    92    93    1
    13    92    95    1
    14    91    97    1
    15    93    98   am
    16    58    57    1
    17    54    57    1
    18    54    53    1
    19    98    99    1
    20   100    99    1
    21   100   101    2
    22    99   102    1
    23    97    96    1
    24    95    96    1
    25    57    59    1
    26   109   110    1
    27   102   103    1
    28   103   105   ar
    29   103   104   ar
    30   105   107   ar
    31   104   106   ar
    32   107   108   ar
    33   106   108   ar
    34    67    65    1
    35   112   111    2
    36    65    64    1
    37    12    13    1
    38    60    61    1
    39   110   111    1
    40   110   113    1
    41    66    64    1
    42   115   113    1
    43    64    61    1
    44    63    62    2
    45   113   114    1
    46    61    62    1
    47    49    50    1
    48    49    46    1
    49    13    16    1
    50    13    14    1
    51    47    48    2
    52    47    46    1
    53    62    68   am
    54    10     9    1
    55    16    17    1
    56    15    14    2
    57    50    52   ar
    58    50    51   ar
    59    46    45    1
    60     9    11    1
    61     9     8    2
    62    68    69    1
    63    17    19    1
    64    17    18    1
    65     7     8    1
    66     7     6    1
    67    45    39   am
    68    69    70    1
    69     4     3    2
    70     5     6    1
    71     5     2    1
    72    79    78    2
    73    40    39    2
    74    39    38    1
    75     3     2    1
    76    36    33    1
    77    70    72   am
    78    70    71    2
    79    24    25    1
    80    24    21    1
    81    72    73    1
    82    20    21    1
    83    27    25   ar
    84     2     1    1
    85    78    77    1
    86    25    26   ar
    87    21    22    1
    88    73    74    1
    89    38    37    1
    90    38    41    1
    91    35    34    2
    92    34    37   am
    93    34    33    1
    94    33    32    1
    95    75    74    2
    96    74    76   am
    97    41    42    1
    98    23    22    2
    99    76    77    1
   100    77    80    1
   101    82    80    1
   102    80    81    1
   103    32    30   am
   104    42    44   ar
   105    42    43   ar
   106    81    83    1
   107    30    31    2
   108    30    29    1
   109    28    29    1
