@<TRIPOS>MOLECULE
tmp/1mrzB00.pdb
 129 124 0 0 0
SMALL
GASTEIGER

@<TRIPOS>ATOM
      1  N         17.6190  -11.8860   52.7210 N.3     5  GLY5       -0.1210
      2  CA        16.3810  -11.1740   52.9970 C.3     5  GLY5        0.1956
      3  C         15.2460  -11.7010   52.1490 C.2     5  GLY5        0.2612
      4  O         15.4460  -12.5790   51.3270 O.2     5  GLY5       -0.2717
      5  N         14.0480  -11.1650   52.3460 N.am    6  VAL6       -0.1965
      6  CA        12.9160  -11.6020   51.5320 C.3     6  VAL6        0.1727
      7  C         13.0030  -10.9040   50.1830 C.2     6  VAL6        0.2616
      8  O         12.9270  -11.5470   49.1400 O.2     6  VAL6       -0.2715
      9  CB        11.5740  -11.2830   52.2200 C.3     6  VAL6        0.0290
     10  CG1       10.4150  -11.5880   51.2680 C.3     6  VAL6        0.0023
     11  CG2       11.4490  -12.1090   53.5140 C.3     6  VAL6        0.0023
     12  N         13.2120   -9.5900   50.2220 N.am    7  PHE7       -0.1960
     13  CA        13.3750   -8.7720   49.0240 C.3     7  PHE7        0.1771
     14  C         12.1100   -8.7300   48.1610 C.2     7  PHE7        0.2619
     15  O         12.1940   -8.6250   46.9290 O.2     7  PHE7       -0.2715
     16  CB        14.5440   -9.2820   48.1630 C.3     7  PHE7        0.0574
     17  CG        15.8670   -9.3590   48.8810 C.ar    7  PHE7       -0.0200
     18  CD1       16.4210   -8.2420   49.4810 C.ar    7  PHE7       -0.0042
     19  CD2       16.5800  -10.5520   48.9120 C.ar    7  PHE7       -0.0042
     20  CE1       17.6710   -8.3240   50.1270 C.ar    7  PHE7       -0.0003
     21  CE2       17.8090  -10.6380   49.5470 C.ar    7  PHE7       -0.0003
     22  CZ        18.3460   -9.5320   50.1670 C.ar    7  PHE7       -0.0000
     23  N         10.9400   -8.7810   48.7870 N.am    8  ASP8       -0.1971
     24  CA         9.7000   -8.7720   48.0060 C.3     8  ASP8        0.1709
     25  C          9.5330   -7.4360   47.2970 C.2     8  ASP8        0.2293
     26  O          9.3730   -6.4070   47.9440 O.2     8  ASP8       -0.2864
     27  CB         8.4760   -9.0500   48.8860 C.3     8  ASP8        0.1436
     28  CG         7.1630   -8.9110   48.1080 C.2     8  ASP8        0.3671
     29  OD1        7.1210   -9.3640   46.9440 O.co2   8  ASP8       -0.2456
     30  OD2        6.1370   -8.3610   48.5780 O.co2   8  ASP8       -0.2456
     31  N         12.6740   -3.3770   45.9250 N.3    11  HIS11      -0.1241
     32  CA        12.5210   -1.9300   45.9090 C.3    11  HIS11       0.1621
     33  C         13.8730   -1.2350   46.1160 C.2    11  HIS11       0.2264
     34  O         14.9070   -1.9050   46.1510 O.2    11  HIS11      -0.2867
     35  CB        11.4520   -1.4980   46.9200 C.3    11  HIS11       0.0745
     36  CG        11.7150   -1.9410   48.3260 C.ar   11  HIS11       0.0817
     37  ND1       12.9260   -1.7590   48.9540 N.ar   11  HIS11      -0.2268
     38  CD2       10.9010   -2.5210   49.2420 C.ar   11  HIS11       0.1154
     39  CE1       12.8560   -2.2210   50.1900 C.ar   11  HIS11       0.1986
     40  NE2       11.6350   -2.6830   50.3940 N.ar   11  HIS11      -0.2212
     41  N         15.3070    0.1240   48.6430 N.3    13  GLY13      -0.1210
     42  CA        16.0010   -0.2600   49.8630 C.3    13  GLY13       0.1956
     43  C         16.7220   -1.5800   49.6290 C.2    13  GLY13       0.2611
     44  O         17.8830   -1.7710   50.0220 O.2    13  GLY13      -0.2717
     45  N         16.0230   -2.5010   48.9720 N.am   14  HIS14      -0.1975
     46  CA        16.5970   -3.7950   48.6170 C.3    14  HIS14       0.1656
     47  C         17.7900   -3.6170   47.6880 C.2    14  HIS14       0.2291
     48  O         18.8050   -4.2860   47.8280 O.2    14  HIS14      -0.2864
     49  CB        15.5530   -4.6740   47.9140 C.3    14  HIS14       0.0771
     50  CG        14.4210   -5.0900   48.8020 C.ar   14  HIS14       0.0820
     51  ND1       13.1300   -5.2410   48.3420 N.ar   14  HIS14      -0.2267
     52  CD2       14.3820   -5.3600   50.1290 C.ar   14  HIS14       0.1154
     53  CE1       12.3490   -5.6050   49.3420 C.ar   14  HIS14       0.1986
     54  NE2       13.0850   -5.6890   50.4380 N.ar   14  HIS14      -0.2212
     55  N          7.8970  -13.7990   54.0580 N.3    40  PRO40      -0.2116
     56  CA         8.0950  -13.1990   55.3740 C.3    40  PRO40       0.1372
     57  C          7.1450  -13.9350   56.3130 C.2    40  PRO40       0.2244
     58  O          6.1860  -14.5360   55.8250 O.2    40  PRO40      -0.2868
     59  CB         7.6460  -11.7540   55.1530 C.3    40  PRO40       0.0268
     60  CG         6.5640  -11.8860   54.1360 C.3    40  PRO40       0.0207
     61  CD         7.0880  -12.9340   53.1780 C.3    40  PRO40       0.0892
     62  N          4.8510  -12.8710   58.1730 N.3    42  GLU42      -0.1245
     63  CA         3.5020  -12.3140   58.0740 C.3    42  GLU42       0.1567
     64  C          2.6470  -13.0150   57.0190 C.2    42  GLU42       0.2260
     65  O          1.4240  -13.0060   57.0960 O.2    42  GLU42      -0.2867
     66  CB         3.5560  -10.8100   57.7630 C.3    42  GLU42       0.0388
     67  CG         4.1840   -9.9580   58.8570 C.3    42  GLU42       0.1160
     68  CD         5.6760  -10.2100   59.0420 C.2    42  GLU42       0.3649
     69  OE1        6.3930  -10.4980   58.0560 O.co2  42  GLU42      -0.2457
     70  OE2        6.1350  -10.1180   60.2010 O.co2  42  GLU42      -0.2457
     71  N         19.2880   -6.1440   55.8590 N.3    98  GLY98      -0.1210
     72  CA        18.6080   -4.9200   56.2350 C.3    98  GLY98       0.1956
     73  C         18.4420   -4.8550   57.7400 C.2    98  GLY98       0.2611
     74  O         19.0300   -5.6450   58.4730 O.2    98  GLY98      -0.2717
     75  N         17.6380   -3.9050   58.2010 N.am   99  ARG99      -0.1979
     76  CA        17.3820   -3.7450   59.6150 C.3    99  ARG99       0.1597
     77  C         16.4090   -4.8010   60.1220 C.2    99  ARG99       0.2287
     78  O         15.6210   -5.3540   59.3440 O.2    99  ARG99      -0.2864
     79  CB        16.8140   -2.3470   59.8860 C.3    99  ARG99       0.0334
     80  CG        17.8360   -1.2440   59.6740 C.3    99  ARG99       0.0492
     81  CD        19.0480   -1.4130   60.5670 C.3    99  ARG99       0.2205
     82  NE        20.0890   -0.4320   60.2910 N.pl3  99  ARG99      -0.0865
     83  CZ        21.2610   -0.4010   60.9120 C.cat  99  ARG99       0.5346
     84  NH1       21.5370   -1.2830   61.8560 N.pl3  99  ARG99       0.1354
     85  NH2       22.1530    0.5190   60.5900 N.pl3  99  ARG99       0.1354
     86  N         17.4740    1.6220   56.3030 N.3   126  ASP126     -0.1239
     87  CA        16.4330    1.7520   55.2980 C.3   126  ASP126      0.1674
     88  C         16.5660    3.0820   54.5720 C.2   126  ASP126      0.2266
     89  O         16.9720    4.0940   55.1520 O.2   126  ASP126     -0.2867
     90  CB        15.0490    1.6680   55.9370 C.3   126  ASP126      0.1410
     91  CG        14.7200    0.2740   56.4390 C.2   126  ASP126      0.3668
     92  OD1       15.1150   -0.7200   55.7970 O.co2 126  ASP126     -0.2456
     93  OD2       14.0400    0.0850   57.4660 O.co2 126  ASP126     -0.2456
     94  N         11.5110    3.2400   53.1920 N.3   134  VAL134     -0.1231
     95  CA        11.0420    2.3780   52.1010 C.3   134  VAL134      0.1692
     96  C         10.8770    0.9570   52.6200 C.2   134  VAL134      0.2593
     97  O         11.7980    0.4110   53.2160 O.2   134  VAL134     -0.2718
     98  CB        12.0190    2.3470   50.9050 C.3   134  VAL134      0.0266
     99  CG1       11.5230    1.3730   49.8370 C.3   134  VAL134      0.0020
    100  CG2       12.2040    3.7320   50.3180 C.3   134  VAL134      0.0020
    101  N          9.7020    0.3690   52.4120 N.am  135  SER135     -0.1938
    102  CA         9.4620   -1.0070   52.8440 C.3   135  SER135      0.2055
    103  C          8.4430   -1.6770   51.9270 C.2   135  SER135      0.2644
    104  O          7.6890   -1.0000   51.2320 O.2   135  SER135     -0.2714
    105  CB         8.9610   -1.0490   54.2930 C.3   135  SER135      0.2130
    106  OG         7.6520   -0.5160   54.3860 O.3   135  SER135     -0.2179
    107  N          8.4360   -3.0070   51.9110 N.am  136  SER136     -0.1935
    108  CA         7.4570   -3.7280   51.1080 C.3   136  SER136      0.2055
    109  C          6.0580   -3.4450   51.6700 C.2   136  SER136      0.2643
    110  O          5.0900   -3.2990   50.9200 O.2   136  SER136     -0.2714
    111  CB         7.7370   -5.2330   51.1100 C.3   136  SER136      0.2130
    112  OG         9.0280   -5.5490   50.5770 O.3   136  SER136     -0.2179
    113  N          5.9610   -3.3400   52.9920 N.am  137  SER137     -0.1949
    114  CA         4.6760   -3.0410   53.6330 C.3   137  SER137      0.1924
    115  C          4.1070   -1.7250   53.1360 C.2   137  SER137      0.2314
    116  O          2.9400   -1.6380   52.7430 O.2   137  SER137     -0.2863
    117  CB         4.8310   -2.9740   55.1580 C.3   137  SER137      0.2116
    118  OG         5.2380   -4.2240   55.6570 O.3   137  SER137     -0.2180
    119  N          2.9180   -2.0820   49.5780 N.3   140  ARG140     -0.1245
    120  CA         1.6750   -2.8510   49.5090 C.3   140  ARG140      0.1563
    121  C          0.4910   -1.9870   49.8890 C.2   140  ARG140      0.2260
    122  O         -0.6010   -2.1210   49.3290 O.2   140  ARG140     -0.2867
    123  CB         1.7080   -4.0350   50.4670 C.3   140  ARG140      0.0307
    124  CG         2.7470   -5.0730   50.1440 C.3   140  ARG140      0.0489
    125  CD         2.9840   -6.0360   51.2960 C.3   140  ARG140      0.2205
    126  NE         3.9950   -7.0320   50.9600 N.pl3 140  ARG140     -0.0865
    127  CZ         4.8760   -7.5170   51.8190 C.cat 140  ARG140      0.5346
    128  NH1        4.8610   -7.1080   53.0810 N.pl3 140  ARG140      0.1354
    129  NH2        5.7670   -8.4190   51.4180 N.pl3 140  ARG140      0.1354
@<TRIPOS>BOND
     1    32    31    1
     2    32    33    1
     3    32    35    1
     4    33    34    2
     5    35    36    1
     6    15    14    2
     7    29    28   ar
     8    25    26    2
     9    25    24    1
    10    47    48    2
    11    47    46    1
    12    49    46    1
    13    49    50    1
    14    24    23    1
    15    24    27    1
    16    28    30   ar
    17    28    27    1
    18    14    23   am
    19    14    13    1
    20    16    17    1
    21    16    13    1
    22    36    37   ar
    23    36    38   ar
    24    51    50   ar
    25    51    53   ar
    26    46    45    1
    27    41    42    1
    28    50    52   ar
    29    17    19   ar
    30    17    18   ar
    31    19    21   ar
    32    37    39   ar
    33    45    43   am
    34    13    12    1
    35     8     7    2
    36    38    40   ar
    37   122   121    2
    38    53    54   ar
    39    18    20   ar
    40   120   119    1
    41   120   121    1
    42   120   123    1
    43    21    22   ar
    44    43    42    1
    45    43    44    2
    46    99    98    1
    47    20    22   ar
    48    52    54   ar
    49   124   123    1
    50   124   125    1
    51     7    12   am
    52     7     6    1
    53    39    40   ar
    54   100    98    1
    55   112   111    1
    56    98    95    1
    57   110   109    2
    58   126   125    1
    59   126   127    2
    60   108   111    1
    61   108   109    1
    62   108   107    1
    63   104   103    2
    64    10     9    1
    65     4     3    2
    66   129   127    1
    67     6     9    1
    68     6     5    1
    69   109   113   am
    70   127   128    1
    71   107   103   am
    72   103   102    1
    73    95    96    1
    74    95    94    1
    75     3     5   am
    76     3     2    1
    77     9    11    1
    78   101    96   am
    79   101   102    1
    80    96    97    2
    81     1     2    1
    82   116   115    2
    83   102   105    1
    84   113   114    1
    85   115   114    1
    86    61    55    1
    87    61    60    1
    88   114   117    1
    89    55    56    1
    90    60    59    1
    91   105   106    1
    92    88    89    2
    93    88    87    1
    94    59    56    1
    95   117   118    1
    96    87    90    1
    97    87    86    1
    98    56    57    1
    99    92    91   ar
   100    58    57    2
   101    71    72    1
   102    90    91    1
   103    72    73    1
   104    91    93   ar
   105    64    65    2
   106    64    63    1
   107    73    75   am
   108    73    74    2
   109    66    63    1
   110    66    67    1
   111    69    68   ar
   112    63    62    1
   113    75    76    1
   114    67    68    1
   115    68    70   ar
   116    78    77    2
   117    76    79    1
   118    76    77    1
   119    80    79    1
   120    80    81    1
   121    82    81    1
   122    82    83    2
   123    85    83    1
   124    83    84    1
