@<TRIPOS>MOLECULE
tmp/1ms1A00.pdb
 184 177 0 0 0
SMALL
GASTEIGER

@<TRIPOS>ATOM
      1  N         35.9840  -11.8410   19.4650 N.3    35  ARG35      -0.1231
      2  CA        35.6190  -11.5550   18.0810 C.3    35  ARG35       0.1694
      3  C         34.1590  -11.1370   17.9650 C.2    35  ARG35       0.2591
      4  O         33.4190  -11.1920   18.9440 O.2    35  ARG35      -0.2718
      5  CB        35.8160  -12.8240   17.2350 C.3    35  ARG35       0.0321
      6  CG        37.2760  -13.1930   16.9770 C.3    35  ARG35       0.0489
      7  CD        37.4830  -13.9300   15.6710 C.3    35  ARG35       0.2205
      8  NE        37.1940  -13.0330   14.5600 N.pl3  35  ARG35      -0.0865
      9  CZ        37.0610  -13.4190   13.3020 C.cat  35  ARG35       0.5346
     10  NH1       36.8030  -12.5190   12.3550 N.pl3  35  ARG35       0.1354
     11  NH2       37.1970  -14.7000   12.9740 N.pl3  35  ARG35       0.1354
     12  N         33.7610  -10.7210   16.7640 N.am   36  LEU36      -0.1980
     13  CA        32.3720  -10.3640   16.4520 C.3    36  LEU36       0.1596
     14  C         31.7800   -9.2630   17.3310 C.2    36  LEU36       0.2287
     15  O         30.8140   -9.4840   18.0570 O.2    36  LEU36      -0.2864
     16  CB        31.4840  -11.6070   16.4840 C.3    36  LEU36       0.0297
     17  CG        31.4840  -12.3940   15.1720 C.3    36  LEU36       0.0022
     18  CD1       32.8600  -13.0020   14.9090 C.3    36  LEU36       0.0001
     19  CD2       30.4070  -13.4600   15.1650 C.3    36  LEU36       0.0001
     20  N         36.0360  -16.3290   22.9270 N.3    53  ARG53      -0.1245
     21  CA        36.5650  -17.6160   22.4800 C.3    53  ARG53       0.1563
     22  C         37.6790  -17.9980   23.4530 C.2    53  ARG53       0.2260
     23  O         38.8250  -17.5840   23.3170 O.2    53  ARG53      -0.2867
     24  CB        37.0690  -17.5250   21.0420 C.3    53  ARG53       0.0307
     25  CG        36.0370  -16.8890   20.1030 C.3    53  ARG53       0.0489
     26  CD        36.2810  -17.1500   18.6090 C.3    53  ARG53       0.2205
     27  NE        35.1540  -16.6630   17.7990 N.pl3  53  ARG53      -0.0865
     28  CZ        35.0350  -16.8360   16.4940 C.cat  53  ARG53       0.5346
     29  NH1       35.9770  -17.4810   15.8180 N.pl3  53  ARG53       0.1354
     30  NH2       33.9730  -16.3420   15.8480 N.pl3  53  ARG53       0.1354
     31  N         36.8520  -21.0450   14.8540 N.3    59  ASP59      -0.1225
     32  CA        35.3940  -20.8720   14.8980 C.3    59  ASP59       0.1805
     33  C         34.6680  -21.9540   15.6820 C.2    59  ASP59       0.2597
     34  O         33.6930  -21.6880   16.3870 O.2    59  ASP59      -0.2718
     35  CB        34.8020  -20.8490   13.4870 C.3    59  ASP59       0.1424
     36  CG        35.2530  -19.6470   12.6810 C.2    59  ASP59       0.3668
     37  OD1       35.3330  -19.7670   11.4420 O.co2  59  ASP59      -0.2456
     38  OD2       35.5600  -18.5540   13.1940 O.co2  59  ASP59      -0.2456
     39  N         35.1340  -23.1830   15.5500 N.am   60  ASN60      -0.1974
     40  CA        34.4290  -24.2850   16.1690 C.3    60  ASN60       0.1688
     41  C         35.1120  -24.7320   17.4510 C.2    60  ASN60       0.2292
     42  O         35.7040  -25.8110   17.5250 O.2    60  ASN60      -0.2864
     43  CB        34.2650  -25.3980   15.1460 C.3    60  ASN60       0.1181
     44  CG        33.8490  -24.8550   13.7930 C.2    60  ASN60       0.2629
     45  OD1       32.8400  -24.1510   13.6840 O.2    60  ASN60      -0.2716
     46  ND2       34.6420  -25.1350   12.7670 N.am   60  ASN60      -0.0877
     47  N         29.3530  -24.0640   21.8770 N.3    93  ARG93      -0.1245
     48  CA        29.5000  -22.6520   21.5840 C.3    93  ARG93       0.1563
     49  C         28.1910  -21.9830   21.2170 C.2    93  ARG93       0.2260
     50  O         27.3020  -22.6050   20.6290 O.2    93  ARG93      -0.2867
     51  CB        30.4720  -22.4650   20.4030 C.3    93  ARG93       0.0307
     52  CG        30.1830  -23.3760   19.1930 C.3    93  ARG93       0.0489
     53  CD        31.2250  -23.2800   18.0740 C.3    93  ARG93       0.2205
     54  NE        30.8510  -24.0340   16.8740 N.pl3  93  ARG93      -0.0865
     55  CZ        31.0360  -25.3450   16.7300 C.cat  93  ARG93       0.5346
     56  NH1       31.5900  -26.0560   17.7160 N.pl3  93  ARG93       0.1354
     57  NH2       30.6670  -25.9450   15.6030 N.pl3  93  ARG93       0.1354
     58  N         27.2140  -18.7370   18.9410 N.3    95  VAL95      -0.1231
     59  CA        27.9770  -18.0580   17.8970 C.3    95  VAL95       0.1692
     60  C         27.2220  -16.9620   17.1610 C.2    95  VAL95       0.2592
     61  O         25.9970  -16.8790   17.2380 O.2    95  VAL95      -0.2718
     62  CB        28.4390  -19.0750   16.8440 C.3    95  VAL95       0.0266
     63  CG1       29.2850  -20.1690   17.5130 C.3    95  VAL95       0.0020
     64  CG2       27.2350  -19.7050   16.1650 C.3    95  VAL95       0.0020
     65  N         27.9710  -16.1310   16.4340 N.am   96  ASP96      -0.1974
     66  CA        27.3990  -15.0380   15.6460 C.3    96  ASP96       0.1709
     67  C         26.3350  -14.2190   16.3860 C.2    96  ASP96       0.2293
     68  O         25.2570  -13.9800   15.8360 O.2    96  ASP96      -0.2864
     69  CB        26.7980  -15.5750   14.3280 C.3    96  ASP96       0.1436
     70  CG        27.8580  -16.0410   13.3310 C.2    96  ASP96       0.3671
     71  OD1       27.6580  -15.8470   12.1160 O.co2  96  ASP96      -0.2456
     72  OD2       28.9090  -16.6230   13.6590 O.co2  96  ASP96      -0.2456
     73  N         25.8630  -24.6580   19.1100 N.3   113  TYR113     -0.1241
     74  CA        26.3620  -25.9540   18.6540 C.3   113  TYR113      0.1605
     75  C         26.8730  -26.7290   19.8600 C.2   113  TYR113      0.2264
     76  O         27.4340  -26.1470   20.7970 O.2   113  TYR113     -0.2867
     77  CB        27.4610  -25.7680   17.6010 C.3   113  TYR113      0.0534
     78  CG        26.9350  -25.1410   16.3460 C.ar  113  TYR113     -0.0201
     79  CD1       26.7910  -23.7620   16.2430 C.ar  113  TYR113     -0.0009
     80  CD2       26.5420  -25.9270   15.2680 C.ar  113  TYR113     -0.0009
     81  CE1       26.2910  -23.1830   15.0970 C.ar  113  TYR113      0.0417
     82  CE2       26.0530  -25.3540   14.1120 C.ar  113  TYR113      0.0417
     83  CZ        25.9190  -23.9790   14.0420 C.ar  113  TYR113      0.1957
     84  OH        25.4220  -23.4120   12.9040 O.3   113  TYR113     -0.2866
     85  N         32.9580  -26.5690   10.1270 N.3   119  TYR119     -0.1227
     86  CA        32.3180  -25.2960    9.8230 C.3   119  TYR119      0.1736
     87  C         30.8460  -25.5200    9.4760 C.2   119  TYR119      0.2595
     88  O         30.4990  -26.4460    8.7380 O.2   119  TYR119     -0.2718
     89  CB        33.0730  -24.5850    8.7060 C.3   119  TYR119      0.0548
     90  CG        34.4240  -24.0550    9.1390 C.ar  119  TYR119     -0.0200
     91  CD1       35.6000  -24.6300    8.6820 C.ar  119  TYR119     -0.0009
     92  CD2       34.5220  -22.9730   10.0070 C.ar  119  TYR119     -0.0009
     93  CE1       36.8380  -24.1400    9.0740 C.ar  119  TYR119      0.0417
     94  CE2       35.7500  -22.4810   10.4000 C.ar  119  TYR119      0.0417
     95  CZ        36.9030  -23.0610    9.9320 C.ar  119  TYR119      0.1957
     96  OH        38.1240  -22.5610   10.3290 O.3   119  TYR119     -0.2866
     97  N         29.9900  -24.6670   10.0310 N.am  120  TRP120     -0.1976
     98  CA        28.5410  -24.8230    9.8780 C.3   120  TRP120      0.1640
     99  C         27.9500  -25.0780    8.4910 C.2   120  TRP120      0.2290
    100  O         27.0430  -25.8930    8.3710 O.2   120  TRP120     -0.2864
    101  CB        27.7850  -23.7070   10.6100 C.3   120  TRP120      0.0576
    102  CG        27.6450  -22.4430    9.8320 C.ar  120  TRP120      0.0006
    103  CD1       28.6280  -21.5480    9.5220 C.ar  120  TRP120      0.0946
    104  CD2       26.4390  -21.9290    9.2610 C.ar  120  TRP120      0.0152
    105  NE1       28.1030  -20.5010    8.7960 N.ar  120  TRP120     -0.2442
    106  CE2       26.7590  -20.7110    8.6270 C.ar  120  TRP120      0.0810
    107  CE3       25.1050  -22.3680    9.2390 C.ar  120  TRP120      0.0012
    108  CZ2       25.8020  -19.9340    7.9640 C.ar  120  TRP120      0.0191
    109  CZ3       24.1620  -21.6050    8.5880 C.ar  120  TRP120      0.0001
    110  CH2       24.5150  -20.3910    7.9580 C.ar  120  TRP120      0.0015
    111  N         21.5510  -18.6330   11.0460 N.3   176  LEU176     -0.1245
    112  CA        22.2180  -17.8310   12.0540 C.3   176  LEU176      0.1561
    113  C         21.9580  -16.3710   11.7320 C.2   176  LEU176      0.2260
    114  O         21.6590  -16.0290   10.5830 O.2   176  LEU176     -0.2867
    115  CB        23.7300  -18.0400   11.9620 C.3   176  LEU176      0.0270
    116  CG        24.2810  -19.4570   12.0910 C.3   176  LEU176      0.0019
    117  CD1       25.7710  -19.4560   11.7100 C.3   176  LEU176      0.0001
    118  CD2       24.0800  -19.9200   13.5120 C.3   176  LEU176      0.0001
    119  N         21.3600  -15.5170    7.7710 N.3   195  GLN195     -0.1245
    120  CA        22.0080  -16.3450    6.7640 C.3   195  GLN195      0.1566
    121  C         21.5180  -17.7760    6.9970 C.2   195  GLN195      0.2260
    122  O         21.4970  -18.2670    8.1280 O.2   195  GLN195     -0.2867
    123  CB        23.5380  -16.2320    6.8430 C.3   195  GLN195      0.0367
    124  CG        24.1450  -16.4260    8.2490 C.3   195  GLN195      0.0905
    125  CD        25.6480  -16.1420    8.2800 C.2   195  GLN195      0.2608
    126  OE1       26.3200  -16.2540    7.2590 O.2   195  GLN195     -0.2717
    127  NE2       26.1720  -15.7930    9.4540 N.am  195  GLN195     -0.0878
    128  N         26.1810  -13.6620    5.9950 N.3   230  GLU230     -0.1245
    129  CA        26.3900  -12.6090    6.9830 C.3   230  GLU230      0.1567
    130  C         25.7560  -11.2740    6.6250 C.2   230  GLU230      0.2260
    131  O         26.4480  -10.2660    6.5330 O.2   230  GLU230     -0.2867
    132  CB        27.8840  -12.3770    7.1380 C.3   230  GLU230      0.0388
    133  CG        28.3670  -12.3780    8.5590 C.3   230  GLU230      0.1160
    134  CD        29.8730  -12.5480    8.6420 C.2   230  GLU230      0.3649
    135  OE1       30.5750  -12.0010    7.7760 O.co2 230  GLU230     -0.2457
    136  OE2       30.3450  -13.2200    9.5800 O.co2 230  GLU230     -0.2457
    137  N         27.4860  -10.1640    2.5260 N.3   245  ARG245     -0.1245
    138  CA        28.8490  -10.6140    2.2960 C.3   245  ARG245      0.1563
    139  C         28.8110  -11.6740    1.2110 C.2   245  ARG245      0.2260
    140  O         28.0020  -12.5930    1.2870 O.2   245  ARG245     -0.2867
    141  CB        29.3770  -11.2500    3.5780 C.3   245  ARG245      0.0307
    142  CG        30.6350  -12.1090    3.4130 C.3   245  ARG245      0.0489
    143  CD        31.1470  -12.6500    4.7690 C.3   245  ARG245      0.2205
    144  NE        32.2930  -13.5450    4.6210 N.pl3 245  ARG245     -0.0865
    145  CZ        33.0520  -13.9620    5.6270 C.cat 245  ARG245      0.5346
    146  NH1       32.8080  -13.5600    6.8650 N.pl3 245  ARG245      0.1354
    147  NH2       34.0550  -14.7900    5.3930 N.pl3 245  ARG245      0.1354
    148  N         41.7060  -14.4210    4.9190 N.3   312  TRP312     -0.1241
    149  CA        40.8660  -13.7900    5.9370 C.3   312  TRP312      0.1605
    150  C         41.5850  -12.7420    6.7990 C.2   312  TRP312      0.2264
    151  O         41.0210  -12.2450    7.7950 O.2   312  TRP312     -0.2867
    152  CB        40.2470  -14.8530    6.8490 C.3   312  TRP312      0.0550
    153  CG        39.2820  -15.7800    6.1600 C.ar  312  TRP312      0.0003
    154  CD1       37.9180  -15.6970    6.1660 C.ar  312  TRP312      0.0946
    155  CD2       39.6070  -16.9390    5.3880 C.ar  312  TRP312      0.0152
    156  NE1       37.3770  -16.7290    5.4350 N.ar  312  TRP312     -0.2442
    157  CE2       38.3920  -17.5090    4.9510 C.ar  312  TRP312      0.0810
    158  CE3       40.8050  -17.5540    5.0120 C.ar  312  TRP312      0.0012
    159  CZ2       38.3430  -18.6550    4.1570 C.ar  312  TRP312      0.0191
    160  CZ3       40.7540  -18.6980    4.2300 C.ar  312  TRP312      0.0001
    161  CH2       39.5280  -19.2340    3.8080 C.ar  312  TRP312      0.0015
    162  N         42.3180   -9.5990    6.2670 N.3   314  ARG314     -0.1245
    163  CA        41.3590   -8.4920    6.3110 C.3   314  ARG314      0.1563
    164  C         41.8380   -7.2570    7.0680 C.2   314  ARG314      0.2260
    165  O         41.1920   -6.7480    7.9880 O.2   314  ARG314     -0.2867
    166  CB        40.0080   -9.0160    6.8260 C.3   314  ARG314      0.0307
    167  CG        39.3300   -9.9380    5.7830 C.3   314  ARG314      0.0489
    168  CD        38.0830  -10.6800    6.2630 C.3   314  ARG314      0.2205
    169  NE        38.3690  -11.6000    7.3670 N.pl3 314  ARG314     -0.0865
    170  CZ        37.4690  -12.4050    7.9250 C.cat 314  ARG314      0.5346
    171  NH1       36.2190  -12.4320    7.4700 N.pl3 314  ARG314      0.1354
    172  NH2       37.8140  -13.1780    8.9500 N.pl3 314  ARG314      0.1354
    173  N         36.2350   -7.5260   11.6460 N.3   342  TYR342     -0.1241
    174  CA        34.8760   -7.1910   12.0710 C.3   342  TYR342      0.1605
    175  C         34.8220   -5.8780   12.8530 C.2   342  TYR342      0.2264
    176  O         35.7840   -5.4950   13.5210 O.2   342  TYR342     -0.2867
    177  CB        34.2460   -8.3260   12.8890 C.3   342  TYR342      0.0534
    178  CG        33.8370   -9.5680   12.1090 C.ar  342  TYR342     -0.0201
    179  CD1       34.5300   -9.9680   10.9730 C.ar  342  TYR342     -0.0009
    180  CD2       32.7540  -10.3490   12.5280 C.ar  342  TYR342     -0.0009
    181  CE1       34.1570  -11.1070   10.2630 C.ar  342  TYR342      0.0417
    182  CE2       32.3830  -11.4890   11.8320 C.ar  342  TYR342      0.0417
    183  CZ        33.0810  -11.8610   10.6970 C.ar  342  TYR342      0.1957
    184  OH        32.7250  -12.9960    9.9970 O.3   342  TYR342     -0.2866
@<TRIPOS>BOND
     1   139   140    2
     2   139   138    1
     3   138   137    1
     4   138   141    1
     5   142   141    1
     6   142   143    1
     7   161   159   ar
     8   161   160   ar
     9   159   157   ar
    10   160   158   ar
    11   144   143    1
    12   144   145    2
    13   148   149    1
    14   157   155   ar
    15   157   156   ar
    16   158   155   ar
    17   155   153   ar
    18   147   145    1
    19   156   154   ar
    20   145   146    1
    21   167   168    1
    22   167   166    1
    23   149   150    1
    24   149   152    1
    25   128   129    1
    26   153   154   ar
    27   153   152    1
    28   168   169    1
    29   162   163    1
    30   163   166    1
    31   163   164    1
    32   131   130    2
    33   130   129    1
    34   120   123    1
    35   120   121    1
    36   120   119    1
    37   150   151    2
    38   123   124    1
    39   129   132    1
    40   121   122    2
    41   164   165    2
    42   132   133    1
    43   126   125    2
    44   169   170    2
    45   171   170    1
    46   135   134   ar
    47   170   172    1
    48   110   108   ar
    49   110   109   ar
    50   108   106   ar
    51   124   125    1
    52   125   127   am
    53   100    99    2
    54    99    98    1
    55   133   134    1
    56   109   107   ar
    57   106   105   ar
    58   106   104   ar
    59   134   136   ar
    60    91    93   ar
    61    91    90   ar
    62    89    90    1
    63    89    86    1
    64    88    87    2
    65   105   103   ar
    66    93    95   ar
    67    90    92   ar
    68   107   104   ar
    69   104   102   ar
    70    87    86    1
    71    87    97   am
    72   103   102   ar
    73    86    85    1
    74   102   101    1
    75    98    97    1
    76    98   101    1
    77    95    96    1
    78    95    94   ar
    79   184   183    1
    80    92    94   ar
    81   181   183   ar
    82   181   179   ar
    83   114   113    2
    84   183   182   ar
    85   179   178   ar
    86   111   112    1
    87    37    36   ar
    88   173   174    1
    89   117   116    1
    90   113   112    1
    91   182   180   ar
    92   115   112    1
    93   115   116    1
    94   174   175    1
    95   174   177    1
    96   116   118    1
    97   178   180   ar
    98   178   177    1
    99    71    70   ar
   100    10     9    1
   101    36    38   ar
   102    36    35    1
   103    46    44   am
   104   175   176    2
   105    84    83    1
   106    11     9    1
   107     9     8    2
   108    70    72   ar
   109    70    69    1
   110    35    32    1
   111    45    44    2
   112    44    43    1
   113    83    82   ar
   114    83    81   ar
   115    82    80   ar
   116    69    66    1
   117     8     7    1
   118    31    32    1
   119    32    33    1
   120    18    17    1
   121    81    79   ar
   122    43    40    1
   123    19    17    1
   124    17    16    1
   125    80    78   ar
   126    39    33   am
   127    39    40    1
   128    57    55    1
   129    66    67    1
   130    66    65    1
   131     7     6    1
   132    33    34    2
   133    29    28    1
   134    68    67    2
   135    30    28    1
   136    64    62    1
   137    40    41    1
   138    79    78   ar
   139    78    77    1
   140    65    60   am
   141    13    16    1
   142    13    12    1
   143    13    14    1
   144    28    27    2
   145    55    54    2
   146    55    56    1
   147    12     3   am
   148    62    63    1
   149    62    59    1
   150    54    53    1
   151     6     5    1
   152    60    61    2
   153    60    59    1
   154     5     2    1
   155    14    15    2
   156    41    42    2
   157    77    74    1
   158    27    26    1
   159    59    58    1
   160     3     2    1
   161     3     4    2
   162    53    52    1
   163     2     1    1
   164    26    25    1
   165    74    73    1
   166    74    75    1
   167    52    51    1
   168    75    76    2
   169    25    24    1
   170    51    48    1
   171    50    49    2
   172    24    21    1
   173    49    48    1
   174    48    47    1
   175    21    20    1
   176    21    22    1
   177    23    22    2
