@<TRIPOS>MOLECULE
tmp/1ms6A00.pdb
 174 171 0 0 0
SMALL
GASTEIGER

@<TRIPOS>ATOM
      1  N         37.2790   22.4650   58.3980 N.3    19  GLN19      -0.1245
      2  CA        38.0790   22.5420   59.6250 C.3    19  GLN19       0.1566
      3  C         37.3450   23.1900   60.7940 C.2    19  GLN19       0.2260
      4  O         37.7120   22.9970   61.9500 O.2    19  GLN19      -0.2867
      5  CB        39.3950   23.2860   59.3690 C.3    19  GLN19       0.0367
      6  CG        39.2270   24.7600   59.0230 C.3    19  GLN19       0.0905
      7  CD        40.5570   25.3970   58.6690 C.2    19  GLN19       0.2608
      8  OE1       41.1990   25.0030   57.7070 O.2    19  GLN19      -0.2717
      9  NE2       40.9760   26.3790   59.4570 N.am   19  GLN19      -0.0878
     10  N         42.1240   25.9300   63.8530 N.3    23  GLY23      -0.1225
     11  CA        43.0850   26.3270   62.8250 C.3    23  GLY23       0.1811
     12  C         43.9910   25.1880   62.3790 C.2    23  GLY23       0.2280
     13  O         45.2180   25.2520   62.5290 O.2    23  GLY23      -0.2866
     14  N         44.3160   24.0970   59.2240 N.3    25  CYS25      -0.1221
     15  CA        44.5060   24.1720   57.7770 C.3    25  CYS25       0.1808
     16  C         45.7820   23.4280   57.3680 C.2    25  CYS25       0.2601
     17  O         45.8130   22.7200   56.3540 O.2    25  CYS25      -0.2717
     18  CB        44.5960   25.6410   57.3490 C.3    25  CYS25       0.0970
     19  SG        46.0100   26.5120   58.1070 S.3    25  CYS25      -0.0800
     20  N         46.8340   23.6010   58.1650 N.am   26  TRP26      -0.1976
     21  CA        48.1230   22.9540   57.9110 C.3    26  TRP26       0.1640
     22  C         47.9980   21.4360   57.9040 C.2    26  TRP26       0.2290
     23  O         48.6360   20.7550   57.0990 O.2    26  TRP26      -0.2864
     24  CB        49.1540   23.3750   58.9770 C.3    26  TRP26       0.0576
     25  CG        48.7490   22.9950   60.3710 C.ar   26  TRP26       0.0006
     26  CD1       47.9120   23.6930   61.1980 C.ar   26  TRP26       0.0946
     27  CD2       49.1560   21.8300   61.0990 C.ar   26  TRP26       0.0152
     28  NE1       47.7730   23.0350   62.3990 N.ar   26  TRP26      -0.2442
     29  CE2       48.5250   21.8870   62.3650 C.ar   26  TRP26       0.0810
     30  CE3       49.9960   20.7380   60.8040 C.ar   26  TRP26       0.0012
     31  CZ2       48.7050   20.9030   63.3380 C.ar   26  TRP26       0.0191
     32  CZ3       50.1790   19.7540   61.7760 C.ar   26  TRP26       0.0001
     33  CH2       49.5330   19.8460   63.0310 C.ar   26  TRP26       0.0015
     34  N         57.0850   21.7530   66.3460 N.3    62  GLY62      -0.1210
     35  CA        56.8640   23.1870   66.2460 C.3    62  GLY62       0.1956
     36  C         55.4260   23.5400   65.9370 C.2    62  GLY62       0.2612
     37  O         55.1240   24.6750   65.5760 O.2    62  GLY62      -0.2717
     38  N         54.5270   22.5710   66.0730 N.am   63  ASN63      -0.1960
     39  CA        53.1150   22.8220   65.7810 C.3    63  ASN63       0.1819
     40  C         52.3040   23.0920   67.0370 C.2    63  ASN63       0.2621
     41  O         52.6990   22.7030   68.1410 O.2    63  ASN63      -0.2715
     42  CB        52.5240   21.6440   64.9940 C.3    63  ASN63       0.1195
     43  CG        53.2080   21.4590   63.6400 C.2    63  ASN63       0.2630
     44  OD1       53.6500   22.4300   63.0200 O.2    63  ASN63      -0.2716
     45  ND2       53.2990   20.2150   63.1850 N.am   63  ASN63      -0.0877
     46  N         51.1660   23.7550   66.8460 N.am   64  LYS64      -0.1977
     47  CA        50.2940   24.1410   67.9440 C.3    64  LYS64       0.1596
     48  C         48.8380   23.7220   67.7460 C.2    64  LYS64       0.2287
     49  O         47.9280   24.4150   68.1800 O.2    64  LYS64      -0.2864
     50  CB        50.3760   25.6560   68.1350 C.3    64  LYS64       0.0298
     51  CG        51.8050   26.1550   68.4590 C.3    64  LYS64       0.0038
     52  CD        51.8550   27.6700   68.5380 C.3    64  LYS64       0.0206
     53  CE        53.1440   28.1570   69.1860 C.3    64  LYS64       0.1093
     54  NZ        54.3670   27.6300   68.5000 N.3    64  LYS64      -0.1314
     55  N         45.9050   25.9690   66.9560 N.3    67  ASN67      -0.1225
     56  CA        46.4830   27.3000   66.9170 C.3    67  ASN67       0.1785
     57  C         47.5510   27.4290   65.8140 C.2    67  ASN67       0.2598
     58  O         48.3150   28.4020   65.7870 O.2    67  ASN67      -0.2718
     59  CB        47.0820   27.6690   68.2810 C.3    67  ASN67       0.1169
     60  CG        46.0290   28.1780   69.2510 C.2    67  ASN67       0.2627
     61  OD1       46.0550   27.8650   70.4370 O.2    67  ASN67      -0.2716
     62  ND2       45.0940   28.9550   68.7450 N.am   67  ASN67      -0.0877
     63  N         47.6240   26.4470   64.9180 N.am   68  GLY68      -0.1942
     64  CA        48.5770   26.5670   63.8240 C.3    68  GLY68       0.2014
     65  C         49.6720   25.5310   63.7220 C.2    68  GLY68       0.2639
     66  O         50.0840   24.9450   64.7250 O.2    68  GLY68      -0.2714
     67  N         50.1580   25.3220   62.4990 N.am   69  GLY69      -0.1939
     68  CA        51.2100   24.3390   62.2830 C.3    69  GLY69       0.2014
     69  C         51.8640   24.4410   60.9130 C.2    69  GLY69       0.2639
     70  O         51.5690   25.3590   60.1430 O.2    69  GLY69      -0.2714
     71  N         52.7390   23.4840   60.6080 N.am   70  PHE70      -0.1959
     72  CA        53.4710   23.4590   59.3460 C.3    70  PHE70       0.1771
     73  C         53.2570   22.1300   58.6190 C.2    70  PHE70       0.2619
     74  O         53.2660   21.0660   59.2420 O.2    70  PHE70      -0.2715
     75  CB        54.9790   23.6140   59.5870 C.3    70  PHE70       0.0574
     76  CG        55.3680   24.8910   60.2900 C.ar   70  PHE70      -0.0200
     77  CD1       55.8130   24.8620   61.6120 C.ar   70  PHE70      -0.0042
     78  CD2       55.3220   26.1120   59.6240 C.ar   70  PHE70      -0.0042
     79  CE1       56.2100   26.0400   62.2690 C.ar   70  PHE70      -0.0003
     80  CE2       55.7210   27.3090   60.2720 C.ar   70  PHE70      -0.0003
     81  CZ        56.1650   27.2650   61.5980 C.ar   70  PHE70      -0.0000
     82  N         53.0960   22.1960   57.3030 N.am   71  MET71      -0.1977
     83  CA        52.8990   20.9840   56.5160 C.3    71  MET71       0.1605
     84  C         54.1790   20.1550   56.4780 C.2    71  MET71       0.2287
     85  O         54.1310   18.9280   56.5850 O.2    71  MET71      -0.2864
     86  CB        52.4560   21.3330   55.0900 C.3    71  MET71       0.0413
     87  CG        51.0230   21.9100   55.0000 C.3    71  MET71       0.0598
     88  SD        50.9040   23.6780   55.3540 S.3    71  MET71      -0.1393
     89  CE        51.7480   24.3610   53.8650 C.3    71  MET71       0.0692
     90  N         51.5920   27.5440   51.4290 N.3   137  GLY137     -0.1225
     91  CA        51.0790   28.5310   52.3600 C.3   137  GLY137      0.1811
     92  C         50.6490   29.7090   51.4900 C.2   137  GLY137      0.2280
     93  O         51.2580   29.9610   50.4360 O.2   137  GLY137     -0.2866
     94  N         45.9890   34.5610   53.2300 N.3   140  ALA140     -0.1231
     95  CA        44.5420   34.5550   53.0940 C.3   140  ALA140      0.1694
     96  C         43.9040   35.5640   54.0420 C.2   140  ALA140      0.2591
     97  O         42.6940   35.5650   54.2160 O.2   140  ALA140     -0.2718
     98  CB        43.9890   33.1500   53.3730 C.3   140  ALA140      0.0304
     99  N         44.7230   36.4340   54.6280 N.am  141  ARG141     -0.1980
    100  CA        44.2410   37.4310   55.5850 C.3   141  ARG141      0.1597
    101  C         43.7160   38.7110   54.9480 C.2   141  ARG141      0.2287
    102  O         44.2120   39.8020   55.2480 O.2   141  ARG141     -0.2864
    103  CB        45.3530   37.7970   56.5710 C.3   141  ARG141      0.0334
    104  CG        45.5680   36.7800   57.6880 C.3   141  ARG141      0.0492
    105  CD        46.5520   37.3300   58.7390 C.3   141  ARG141      0.2205
    106  NE        45.9400   38.3610   59.5820 N.pl3 141  ARG141     -0.0865
    107  CZ        46.1960   39.6660   59.4850 C.cat 141  ARG141      0.5346
    108  NH1       47.0610   40.1100   58.5780 N.pl3 141  ARG141      0.1354
    109  NH2       45.5800   40.5310   60.2910 N.pl3 141  ARG141      0.1354
    110  N         37.8920   35.5800   52.0260 N.3   146  PHE146     -0.1241
    111  CA        36.7220   35.0210   52.7110 C.3   146  PHE146      0.1605
    112  C         35.4670   35.1450   51.8530 C.2   146  PHE146      0.2264
    113  O         34.5740   34.3070   51.9270 O.2   146  PHE146     -0.2867
    114  CB        36.4600   35.7530   54.0310 C.3   146  PHE146      0.0534
    115  CG        37.4760   35.4710   55.0990 C.ar  146  PHE146     -0.0203
    116  CD1       38.6710   36.1860   55.1490 C.ar  146  PHE146     -0.0042
    117  CD2       37.2350   34.5080   56.0630 C.ar  146  PHE146     -0.0042
    118  CE1       39.6140   35.9400   56.1580 C.ar  146  PHE146     -0.0003
    119  CE2       38.1670   34.2550   57.0700 C.ar  146  PHE146     -0.0003
    120  CZ        39.3570   34.9750   57.1170 C.ar  146  PHE146     -0.0000
    121  N         52.7330   34.5260   54.2530 N.3   162  VAL162     -0.1231
    122  CA        51.6910   33.5080   54.2820 C.3   162  VAL162      0.1692
    123  C         51.2020   33.1560   55.6830 C.2   162  VAL162      0.2592
    124  O         51.9450   33.2550   56.6550 O.2   162  VAL162     -0.2718
    125  CB        52.1570   32.2430   53.5260 C.3   162  VAL162      0.0266
    126  CG1       52.4730   32.6180   52.0600 C.3   162  VAL162      0.0020
    127  CG2       53.3890   31.6290   54.2100 C.3   162  VAL162      0.0020
    128  N         49.9520   32.7200   55.7760 N.am  163  ASN163     -0.1960
    129  CA        49.3730   32.4260   57.0810 C.3   163  ASN163      0.1819
    130  C         48.3360   31.3170   57.0460 C.2   163  ASN163      0.2621
    131  O         47.8130   30.9290   58.0810 O.2   163  ASN163     -0.2715
    132  CB        48.7130   33.7020   57.5940 C.3   163  ASN163      0.1195
    133  CG        47.9860   34.4510   56.4790 C.2   163  ASN163      0.2630
    134  OD1       47.0640   33.9110   55.8440 O.2   163  ASN163     -0.2716
    135  ND2       48.4080   35.6940   56.2190 N.am  163  ASN163     -0.0877
    136  N         48.0520   30.8010   55.8560 N.am  164  HIS164     -0.1959
    137  CA        47.0190   29.7740   55.6920 C.3   164  HIS164      0.1787
    138  C         47.5650   28.6340   54.8360 C.2   164  HIS164      0.2620
    139  O         48.1420   28.8870   53.7860 O.2   164  HIS164     -0.2715
    140  CB        45.8020   30.4330   55.0180 C.3   164  HIS164      0.0785
    141  CG        44.6400   29.5160   54.8110 C.ar  164  HIS164      0.0821
    142  ND1       44.1810   28.6540   55.7860 N.ar  164  HIS164     -0.2267
    143  CD2       43.8200   29.3500   53.7460 C.ar  164  HIS164      0.1154
    144  CE1       43.1280   27.9960   55.3280 C.ar  164  HIS164      0.1986
    145  NE2       42.8880   28.4010   54.0940 N.ar  164  HIS164     -0.2212
    146  N         47.3900   27.3930   55.2940 N.am  165  GLY165     -0.1954
    147  CA        47.8880   26.2420   54.5480 C.3   165  GLY165      0.1869
    148  C         46.8080   25.6490   53.6630 C.2   165  GLY165      0.2309
    149  O         45.7120   25.3820   54.1370 O.2   165  GLY165     -0.2863
    150  N         37.7700   24.7250   54.1620 N.3   186  TRP186     -0.1241
    151  CA        36.7350   25.5330   54.7940 C.3   186  TRP186      0.1605
    152  C         35.3450   25.0390   54.3940 C.2   186  TRP186      0.2264
    153  O         34.3810   25.8140   54.3840 O.2   186  TRP186     -0.2867
    154  CB        36.8910   26.9970   54.3890 C.3   186  TRP186      0.0550
    155  CG        38.0460   27.7270   55.0400 C.ar  186  TRP186      0.0003
    156  CD1       38.9930   27.1990   55.8830 C.ar  186  TRP186      0.0946
    157  CD2       38.3640   29.1170   54.8990 C.ar  186  TRP186      0.0152
    158  NE1       39.8840   28.1840   56.2740 N.ar  186  TRP186     -0.2442
    159  CE2       39.5170   29.3690   55.6830 C.ar  186  TRP186      0.0810
    160  CE3       37.7850   30.1800   54.1850 C.ar  186  TRP186      0.0012
    161  CZ2       40.1020   30.6440   55.7730 C.ar  186  TRP186      0.0191
    162  CZ3       38.3700   31.4450   54.2760 C.ar  186  TRP186      0.0001
    163  CH2       39.5160   31.6620   55.0660 C.ar  186  TRP186      0.0015
    164  N         56.2840   28.9120   50.0170 N.3   211  PHE211     -0.1241
    165  CA        56.7170   27.7260   50.7530 C.3   211  PHE211      0.1605
    166  C         55.9820   26.4370   50.3610 C.2   211  PHE211      0.2264
    167  O         55.1660   25.9180   51.1210 O.2   211  PHE211     -0.2867
    168  CB        56.5630   27.9740   52.2630 C.3   211  PHE211      0.0534
    169  CG        57.3690   29.1450   52.7780 C.ar  211  PHE211     -0.0203
    170  CD1       56.7720   30.3950   52.9710 C.ar  211  PHE211     -0.0042
    171  CD2       58.7250   28.9930   53.0960 C.ar  211  PHE211     -0.0042
    172  CE1       57.5110   31.4810   53.4730 C.ar  211  PHE211     -0.0003
    173  CE2       59.4670   30.0680   53.5950 C.ar  211  PHE211     -0.0003
    174  CZ        58.8520   31.3160   53.7820 C.ar  211  PHE211     -0.0000
@<TRIPOS>BOND
     1   164   165    1
     2   166   165    1
     3   166   167    2
     4    93    92    2
     5   165   168    1
     6    90    91    1
     7    92    91    1
     8   112   113    2
     9   112   111    1
    10   110   111    1
    11   126   125    1
    12   168   169    1
    13   111   114    1
    14   169   170   ar
    15   169   171   ar
    16   170   172   ar
    17    95    94    1
    18    95    98    1
    19    95    96    1
    20   171   173   ar
    21   172   174   ar
    22   125   127    1
    23   125   122    1
    24   173   174   ar
    25   148   149    2
    26   148   147    1
    27   143   145   ar
    28   143   141   ar
    29   139   138    2
    30    89    88    1
    31   114   115    1
    32    96    97    2
    33    96    99   am
    34   145   144   ar
    35   150   151    1
    36   160   162   ar
    37   160   157   ar
    38   121   122    1
    39   162   163   ar
    40   122   123    1
    41   153   152    2
    42   154   151    1
    43   154   155    1
    44   152   151    1
    45   147   146    1
    46    99   100    1
    47   141   140    1
    48   141   142   ar
    49   138   146   am
    50   138   137    1
    51   157   155   ar
    52   157   159   ar
    53   101   102    2
    54   101   100    1
    55    87    86    1
    56    87    88    1
    57   140   137    1
    58   155   156   ar
    59   163   161   ar
    60    86    83    1
    61   115   116   ar
    62   115   117   ar
    63   116   118   ar
    64   144   142   ar
    65   100   103    1
    66   123   128   am
    67   123   124    2
    68   159   161   ar
    69   159   158   ar
    70   137   136    1
    71   128   129    1
    72   134   133    2
    73   136   130   am
    74   156   158   ar
    75   117   119   ar
    76   118   120   ar
    77   135   133   am
    78    17    16    2
    79    84    83    1
    80    84    85    2
    81   133   132    1
    82    83    82    1
    83   103   104    1
    84   130   129    1
    85   130   131    2
    86   119   120   ar
    87   129   132    1
    88    23    22    2
    89    82    73   am
    90    18    15    1
    91    18    19    1
    92    16    15    1
    93    16    20   am
    94   104   105    1
    95     8     7    2
    96    15    14    1
    97    22    21    1
    98    21    20    1
    99    21    24    1
   100     1     2    1
   101   108   107    1
   102    73    74    2
   103    73    72    1
   104     7     6    1
   105     7     9   am
   106   105   106    1
   107    24    25    1
   108     6     5    1
   109    72    75    1
   110    72    71    1
   111     5     2    1
   112   107   106    2
   113   107   109    1
   114    75    76    1
   115    78    80   ar
   116    78    76   ar
   117     2     3    1
   118    70    69    2
   119    80    81   ar
   120    76    77   ar
   121    25    27   ar
   122    25    26   ar
   123    71    69   am
   124     3     4    2
   125    30    27   ar
   126    30    32   ar
   127    69    68    1
   128    27    29   ar
   129    26    28   ar
   130    81    79   ar
   131    77    79   ar
   132    32    33   ar
   133    68    67    1
   134    29    28   ar
   135    29    31   ar
   136    12    13    2
   137    12    11    1
   138    67    65   am
   139    11    10    1
   140    44    43    2
   141    33    31   ar
   142    45    43   am
   143    43    42    1
   144    65    64    1
   145    65    66    2
   146    64    63    1
   147    63    57   am
   148    42    39    1
   149    37    36    2
   150    39    38    1
   151    39    40    1
   152    58    57    2
   153    57    56    1
   154    36    38   am
   155    36    35    1
   156    35    34    1
   157    46    40   am
   158    46    47    1
   159    56    55    1
   160    56    59    1
   161    40    41    2
   162    48    47    1
   163    48    49    2
   164    47    50    1
   165    50    51    1
   166    59    60    1
   167    51    52    1
   168    54    53    1
   169    52    53    1
   170    62    60   am
   171    60    61    2
