@<TRIPOS>MOLECULE
tmp/1ms8B00.pdb
 212 203 0 0 0
SMALL
GASTEIGER

@<TRIPOS>ATOM
      1  N         34.4300    7.9460   11.7560 N.3    34  ARG34      -0.1231
      2  CA        33.2740    8.8610   11.8660 C.3    34  ARG34       0.1694
      3  C         32.1960    8.2530   12.7300 C.2    34  ARG34       0.2591
      4  O         32.3130    7.0730   13.1030 O.2    34  ARG34      -0.2718
      5  CB        32.6950    9.1700   10.5000 C.3    34  ARG34       0.0321
      6  CG        33.6260    9.9770    9.5920 C.3    34  ARG34       0.0489
      7  CD        32.8660   10.7750    8.5710 C.3    34  ARG34       0.2205
      8  NE        32.0020   11.7000    9.3020 N.pl3  34  ARG34      -0.0865
      9  CZ        31.0750   12.4400    8.8080 C.cat  34  ARG34       0.5346
     10  NH1       30.8170   12.5160    7.5120 N.pl3  34  ARG34       0.1354
     11  NH2       30.3900   13.2010    9.6360 N.pl3  34  ARG34       0.1354
     12  N         31.1790    9.0520   13.0740 N.am   35  LEU35      -0.1980
     13  CA        29.9760    8.6000   13.8120 C.3    35  LEU35       0.1596
     14  C         30.2400    7.9920   15.2100 C.2    35  LEU35       0.2287
     15  O         29.8580    6.8530   15.5130 O.2    35  LEU35      -0.2864
     16  CB        29.1530    7.6370   12.9360 C.3    35  LEU35       0.0297
     17  CG        28.3190    8.3730   11.8530 C.3    35  LEU35       0.0022
     18  CD1       28.0520    7.5100   10.6280 C.3    35  LEU35       0.0001
     19  CD2       26.9970    8.8750   12.4010 C.3    35  LEU35       0.0001
     20  N         35.9380    3.6760    8.2450 N.3    52  ARG52      -0.1245
     21  CA        35.7890    3.8450    6.8090 C.3    52  ARG52       0.1563
     22  C         37.1700    3.6000    6.1540 C.2    52  ARG52       0.2260
     23  O         38.0490    4.4910    6.0430 O.2    52  ARG52      -0.2867
     24  CB        35.2480    5.2410    6.4630 C.3    52  ARG52       0.0307
     25  CG        34.0120    5.6970    7.2430 C.3    52  ARG52       0.0489
     26  CD        33.2000    6.7200    6.5780 C.3    52  ARG52       0.2205
     27  NE        31.9560    6.9120    7.2980 N.pl3  52  ARG52      -0.0865
     28  CZ        31.0010    7.7150    6.9590 C.cat  52  ARG52       0.5346
     29  NH1       31.0940    8.5150    5.9040 N.pl3  52  ARG52       0.1354
     30  NH2       29.9280    7.7290    7.7180 N.pl3  52  ARG52       0.1354
     31  N         30.4210    8.4820    1.9740 N.3    58  ASP58      -0.1225
     32  CA        29.4360    7.6920    2.6990 C.3    58  ASP58       0.1805
     33  C         29.2160    6.2830    2.1530 C.2    58  ASP58       0.2597
     34  O         28.9530    5.3560    2.9160 O.2    58  ASP58      -0.2718
     35  CB        28.0630    8.3680    2.7780 C.3    58  ASP58       0.1424
     36  CG        28.0980    9.6700    3.6010 C.2    58  ASP58       0.3668
     37  OD1       27.3600   10.5950    3.2480 O.co2  58  ASP58      -0.2456
     38  OD2       28.8180    9.8410    4.6050 O.co2  58  ASP58      -0.2456
     39  N         29.3200    6.1250    0.8620 N.am   59  ASN59      -0.1974
     40  CA        28.9640    4.8480    0.2680 C.3    59  ASN59       0.1688
     41  C         30.2590    4.1540   -0.1520 C.2    59  ASN59       0.2292
     42  O         30.5810    4.1040   -1.3120 O.2    59  ASN59      -0.2864
     43  CB        27.9500    5.1020   -0.8720 C.3    59  ASN59       0.1181
     44  CG        26.8340    6.1270   -0.4840 C.2    59  ASN59       0.2629
     45  OD1       26.1350    5.9180    0.5080 O.2    59  ASN59      -0.2716
     46  ND2       26.6820    7.2270   -1.2540 N.am   59  ASN59      -0.0877
     47  N         28.9530   -2.0350    3.2670 N.3    92  ARG92      -0.1245
     48  CA        29.0350   -1.2830    4.5120 C.3    92  ARG92       0.1563
     49  C         27.9330   -1.5430    5.5750 C.2    92  ARG92       0.2260
     50  O         26.8090   -1.8460    5.2410 O.2    92  ARG92      -0.2867
     51  CB        29.0370    0.1670    4.1130 C.3    92  ARG92       0.0307
     52  CG        27.7870    0.5930    3.3380 C.3    92  ARG92       0.0489
     53  CD        27.9400    1.8900    2.6190 C.3    92  ARG92       0.2205
     54  NE        26.7550    2.3520    1.8990 N.pl3  92  ARG92      -0.0865
     55  CZ        26.4880    2.0940    0.6570 C.cat  92  ARG92       0.5346
     56  NH1       27.2990    1.3050   -0.0650 N.pl3  92  ARG92       0.1354
     57  NH2       25.4170    2.6050    0.1280 N.pl3  92  ARG92       0.1354
     58  N         26.2330    0.7740    8.5120 N.3    94  VAL94      -0.1231
     59  CA        26.1880    2.2340    8.6900 C.3    94  VAL94       0.1692
     60  C         25.3250    2.7900    9.8430 C.2    94  VAL94       0.2592
     61  O         24.4370    2.0840   10.4010 O.2    94  VAL94      -0.2718
     62  CB        25.7190    2.8790    7.3500 C.3    94  VAL94       0.0266
     63  CG1       26.6200    2.4250    6.1550 C.3    94  VAL94       0.0020
     64  CG2       24.3260    2.4730    7.0100 C.3    94  VAL94       0.0020
     65  N         25.6200    4.0440   10.2200 N.am   95  ASP95      -0.1974
     66  CA        24.8920    4.6980   11.2670 C.3    95  ASP95       0.1709
     67  C         24.7190    3.7870   12.5120 C.2    95  ASP95       0.2293
     68  O         23.6190    3.6320   13.0400 O.2    95  ASP95      -0.2864
     69  CB        23.5090    5.1070   10.7240 C.3    95  ASP95       0.1436
     70  CG        23.5760    6.2580    9.7530 C.2    95  ASP95       0.3671
     71  OD1       22.5240    6.8530    9.4510 O.co2  95  ASP95      -0.2456
     72  OD2       24.6440    6.7390    9.3210 O.co2  95  ASP95      -0.2456
     73  N         24.4190   -2.3430    3.6020 N.3   112  TYR112     -0.1241
     74  CA        24.2790   -2.1680    2.1470 C.3   112  TYR112      0.1605
     75  C         25.3720   -2.9750    1.4010 C.2   112  TYR112      0.2264
     76  O         26.5060   -3.1280    1.8860 O.2   112  TYR112     -0.2867
     77  CB        24.3370   -0.7070    1.7320 C.3   112  TYR112      0.0534
     78  CG        23.2350    0.1170    2.2530 C.ar  112  TYR112     -0.0201
     79  CD1       23.3300    0.7410    3.4800 C.ar  112  TYR112     -0.0009
     80  CD2       22.0940    0.3320    1.5000 C.ar  112  TYR112     -0.0009
     81  CE1       22.2580    1.5140    3.9740 C.ar  112  TYR112      0.0417
     82  CE2       21.0470    1.1020    1.9730 C.ar  112  TYR112      0.0417
     83  CZ        21.1350    1.6860    3.2080 C.ar  112  TYR112      0.1957
     84  OH        20.0720    2.4390    3.6820 O.3   112  TYR112     -0.2866
     85  N         23.3090    7.6940   -2.1120 N.3   118  TYR118     -0.1227
     86  CA        22.7230    7.9290   -0.8050 C.3   118  TYR118      0.1736
     87  C         21.3400    7.2290   -0.5860 C.2   118  TYR118      0.2595
     88  O         20.4410    7.2940   -1.4110 O.2   118  TYR118     -0.2718
     89  CB        22.6100    9.4440   -0.6780 C.3   118  TYR118      0.0548
     90  CG        22.1160    9.9620    0.6430 C.ar  118  TYR118     -0.0200
     91  CD1       22.7930    9.7120    1.8320 C.ar  118  TYR118     -0.0009
     92  CD2       20.9360   10.6890    0.7040 C.ar  118  TYR118     -0.0009
     93  CE1       22.3250   10.2050    3.0310 C.ar  118  TYR118      0.0417
     94  CE2       20.4630   11.1690    1.8990 C.ar  118  TYR118      0.0417
     95  CZ        21.1700   10.9310    3.0500 C.ar  118  TYR118      0.1957
     96  OH        20.6770   11.4420    4.2110 O.3   118  TYR118     -0.2866
     97  N         21.2240    6.5120    0.5280 N.am  119  TRP119     -0.1962
     98  CA        20.0190    5.7400    0.9090 C.3   119  TRP119      0.1771
     99  C         18.6790    6.3700    0.5720 C.2   119  TRP119      0.2620
    100  O         17.8330    5.7280   -0.0200 O.2   119  TRP119     -0.2715
    101  CB        20.0680    5.2630    2.3710 C.3   119  TRP119      0.0590
    102  CG        19.6850    6.2690    3.4620 C.ar  119  TRP119      0.0006
    103  CD1       20.4190    7.3480    3.8950 C.ar  119  TRP119      0.0946
    104  CD2       18.5150    6.2200    4.2960 C.ar  119  TRP119      0.0152
    105  NE1       19.7350    8.0080    4.9020 N.ar  119  TRP119     -0.2442
    106  CE2       18.5570    7.3520    5.1500 C.ar  119  TRP119      0.0810
    107  CE3       17.3980    5.3950    4.3400 C.ar  119  TRP119      0.0012
    108  CZ2       17.5700    7.6260    6.0710 C.ar  119  TRP119      0.0191
    109  CZ3       16.4230    5.6680    5.2240 C.ar  119  TRP119      0.0001
    110  CH2       16.5250    6.7800    6.1160 C.ar  119  TRP119      0.0015
    111  N         18.4970    7.6440    0.9080 N.am  120  THR120     -0.1951
    112  CA        17.2050    8.2830    0.6440 C.3   120  THR120      0.1897
    113  C         16.9230    8.4760   -0.8150 C.2   120  THR120      0.2313
    114  O         15.8030    8.8410   -1.1580 O.2   120  THR120     -0.2863
    115  CB        17.0540    9.6630    1.3740 C.3   120  THR120      0.1794
    116  OG1       17.9110   10.6580    0.7900 O.3   120  THR120     -0.2208
    117  CG2       17.5000    9.5490    2.8780 C.3   120  THR120      0.0378
    118  N         16.7720    3.2940    9.2040 N.3   175  LEU175     -0.1245
    119  CA        18.0810    3.2530    9.9020 C.3   175  LEU175      0.1561
    120  C         17.9530    3.9300   11.2770 C.2   175  LEU175      0.2260
    121  O         17.0450    4.7150   11.4710 O.2   175  LEU175     -0.2867
    122  CB        19.0930    4.0940    9.1350 C.3   175  LEU175      0.0270
    123  CG        19.4670    3.7080    7.7250 C.3   175  LEU175      0.0019
    124  CD1       20.2810    4.8000    7.1480 C.3   175  LEU175      0.0001
    125  CD2       20.2080    2.3920    7.6480 C.3   175  LEU175      0.0001
    126  N         15.0080    6.7900   11.5410 N.3   194  GLN194     -0.1245
    127  CA        14.7030    7.5760   10.3540 C.3   194  GLN194      0.1566
    128  C         14.1970    6.5660    9.3120 C.2   194  GLN194      0.2260
    129  O         14.8290    5.5440    9.1120 O.2   194  GLN194     -0.2867
    130  CB        15.8850    8.3930    9.8530 C.3   194  GLN194      0.0367
    131  CG        17.2340    7.6950    9.7930 C.3   194  GLN194      0.0905
    132  CD        18.4120    8.6150    9.5060 C.2   194  GLN194      0.2608
    133  OE1       18.2310    9.7040    8.9820 O.2   194  GLN194     -0.2717
    134  NE2       19.6540    8.1440    9.8260 N.am  194  GLN194     -0.0878
    135  N         11.5920   11.5490    3.9460 N.3   202  VAL202     -0.1245
    136  CA        12.1540   10.9750    5.1660 C.3   202  VAL202      0.1561
    137  C         11.3860   11.4990    6.3480 C.2   202  VAL202      0.2260
    138  O         10.7980   12.5840    6.2740 O.2   202  VAL202     -0.2867
    139  CB        13.6110   11.2610    5.3710 C.3   202  VAL202      0.0252
    140  CG1       13.8700   12.7210    5.7750 C.3   202  VAL202      0.0019
    141  CG2       14.1430   10.3290    6.4570 C.3   202  VAL202      0.0019
    142  N         15.2830   13.9310   10.0680 N.3   228  SER228     -0.1202
    143  CA        16.1900   12.7940   10.0090 C.3   228  SER228      0.2020
    144  C         17.0850   12.6730   11.2640 C.2   228  SER228      0.2618
    145  O         17.0500   13.5170   12.1630 O.2   228  SER228     -0.2717
    146  CB        17.1290   12.9830    8.8140 C.3   228  SER228      0.2103
    147  OG        18.1120   13.9850    9.0780 O.3   228  SER228     -0.2182
    148  N         17.8980   11.6220   11.2740 N.am  229  GLU229     -0.1979
    149  CA        18.8670   11.2870   12.3530 C.3   229  GLU229      0.1602
    150  C         18.3960   11.7090   13.6840 C.2   229  GLU229      0.2287
    151  O         19.0030   12.5550   14.2500 O.2   229  GLU229     -0.2864
    152  CB        20.1720   12.0700   12.1640 C.3   229  GLU229      0.0415
    153  CG        21.1700   11.3970   11.2900 C.3   229  GLU229      0.1163
    154  CD        22.4870   12.1520   11.1000 C.2   229  GLU229      0.3649
    155  OE1       22.6750   13.3470   11.4890 O.co2 229  GLU229     -0.2457
    156  OE2       23.3300   11.5100   10.4910 O.co2 229  GLU229     -0.2457
    157  N         17.1880   16.1300   13.3190 N.3   244  ARG244     -0.1245
    158  CA        17.9460   16.8870   12.3300 C.3   244  ARG244      0.1563
    159  C         17.0380   17.3050   11.1660 C.2   244  ARG244      0.2260
    160  O         16.2260   16.5040   10.6880 O.2   244  ARG244     -0.2867
    161  CB        19.0840   16.0450   11.7940 C.3   244  ARG244      0.0307
    162  CG        19.9580   16.6830   10.7760 C.3   244  ARG244      0.0489
    163  CD        21.1410   15.8130   10.3200 C.3   244  ARG244      0.2205
    164  NE        21.6500   16.2100    9.0090 N.pl3 244  ARG244     -0.0865
    165  CZ        22.7440   15.6850    8.4600 C.cat 244  ARG244      0.5346
    166  NH1       23.4480   14.8040    9.0770 N.pl3 244  ARG244      0.1354
    167  NH2       23.1790   16.0620    7.3110 N.pl3 244  ARG244      0.1354
    168  N         17.7390   19.2700    7.5660 N.3   246  ASP246     -0.1239
    169  CA        18.6730   19.9440    6.7000 C.3   246  ASP246      0.1674
    170  C         18.1410   21.3130    6.2660 C.2   246  ASP246      0.2266
    171  O         17.0030   21.4610    6.0590 O.2   246  ASP246     -0.2867
    172  CB        19.0560   19.0380    5.5350 C.3   246  ASP246      0.1410
    173  CG        20.1070   17.9650    5.9390 C.2   246  ASP246      0.3668
    174  OD1       20.2080   16.9610    5.2220 O.co2 246  ASP246     -0.2456
    175  OD2       20.9120   18.0780    6.9040 O.co2 246  ASP246     -0.2456
    176  N         28.9020   20.9040    4.7440 N.3   311  TRP311     -0.1241
    177  CA        28.9810   19.8320    5.7790 C.3   311  TRP311      0.1605
    178  C         30.2130   19.9940    6.6360 C.2   311  TRP311      0.2264
    179  O         30.5620   19.1210    7.3770 O.2   311  TRP311     -0.2867
    180  CB        28.9250   18.4060    5.1660 C.3   311  TRP311      0.0550
    181  CG        27.5880   18.0940    4.5430 C.ar  311  TRP311      0.0003
    182  CD1       26.5520   17.4410    5.1230 C.ar  311  TRP311      0.0946
    183  CD2       27.1320   18.4610    3.2360 C.ar  311  TRP311      0.0152
    184  NE1       25.4800   17.3730    4.2660 N.ar  311  TRP311     -0.2442
    185  CE2       25.8100   18.0020    3.1070 C.ar  311  TRP311      0.0810
    186  CE3       27.7090   19.1140    2.1650 C.ar  311  TRP311      0.0012
    187  CZ2       25.0820   18.1630    1.9580 C.ar  311  TRP311      0.0191
    188  CZ3       26.9730   19.2980    1.0240 C.ar  311  TRP311      0.0001
    189  CH2       25.6950   18.8170    0.9230 C.ar  311  TRP311      0.0015
    190  N         30.9210   22.1320    9.2580 N.3   313  ARG313     -0.1245
    191  CA        30.4760   21.9140   10.6250 C.3   313  ARG313      0.1563
    192  C         31.5440   22.0150   11.6990 C.2   313  ARG313      0.2260
    193  O         31.7680   21.1250   12.5380 O.2   313  ARG313     -0.2867
    194  CB        29.7490   20.5840   10.6640 C.3   313  ARG313      0.0307
    195  CG        28.4750   20.6520    9.7810 C.3   313  ARG313      0.0489
    196  CD        27.6680   19.3530    9.6130 C.3   313  ARG313      0.2205
    197  NE        28.4240   18.3150    8.8830 N.pl3 313  ARG313     -0.0865
    198  CZ        27.9310   17.1060    8.5890 C.cat 313  ARG313      0.5346
    199  NH1       26.6600   16.7760    8.9190 N.pl3 313  ARG313      0.1354
    200  NH2       28.7190   16.2070    7.9920 N.pl3 313  ARG313      0.1354
    201  N         30.2580   15.4550   14.1890 N.3   341  TYR341     -0.1241
    202  CA        29.6030   14.4400   15.0200 C.3   341  TYR341      0.1605
    203  C         30.3030   14.2610   16.3610 C.2   341  TYR341      0.2264
    204  O         31.5180   14.3770   16.4720 O.2   341  TYR341     -0.2867
    205  CB        29.4840   13.0730   14.2810 C.3   341  TYR341      0.0534
    206  CG        28.4510   12.9800   13.1590 C.ar  341  TYR341     -0.0201
    207  CD1       28.1310   14.0700   12.3650 C.ar  341  TYR341     -0.0009
    208  CD2       27.8030   11.7770   12.8950 C.ar  341  TYR341     -0.0009
    209  CE1       27.1870   13.9480   11.3610 C.ar  341  TYR341      0.0417
    210  CE2       26.9080   11.6610   11.9100 C.ar  341  TYR341      0.0417
    211  CZ        26.5760   12.7350   11.1380 C.ar  341  TYR341      0.1957
    212  OH        25.6290   12.5290   10.1650 O.3   341  TYR341     -0.2866
@<TRIPOS>BOND
     1    85    86    1
     2    88    87    2
     3    42    41    2
     4    46    44   am
     5   114   113    2
     6    43    44    1
     7    43    40    1
     8   113   112    1
     9    86    89    1
    10    86    87    1
    11    89    90    1
    12    87    97   am
    13    44    45    2
    14    41    40    1
    15    56    55    1
    16   100    99    2
    17    57    55    1
    18    40    39    1
    19    97    98    1
    20    99   111   am
    21    99    98    1
    22    90    92   ar
    23    90    91   ar
    24   112   111    1
    25   112   115    1
    26    55    54    2
    27    92    94   ar
    28   116   115    1
    29    39    33   am
    30    98   101    1
    31   189   188   ar
    32   189   187   ar
    33   188   186   ar
    34   115   117    1
    35    75    76    2
    36    75    74    1
    37    80    82   ar
    38    80    78   ar
    39    77    74    1
    40    77    78    1
    41    91    93   ar
    42    54    53    1
    43    94    95   ar
    44   187   185   ar
    45    82    83   ar
    46    31    32    1
    47    74    73    1
    48    33    32    1
    49    33    34    2
    50   186   183   ar
    51    78    79   ar
    52   101   102    1
    53    53    52    1
    54    32    35    1
    55    35    36    1
    56    93    95   ar
    57    95    96    1
    58   185   183   ar
    59   185   184   ar
    60    83    84    1
    61    83    81   ar
    62   183   181   ar
    63    37    36   ar
    64    47    48    1
    65    52    51    1
    66   102   103   ar
    67   102   104   ar
    68    79    81   ar
    69    36    38   ar
    70   103   105   ar
    71   135   136    1
    72    51    48    1
    73   184   182   ar
    74   104   107   ar
    75   104   106   ar
    76   107   109   ar
    77    48    49    1
    78   181   182   ar
    79   181   180    1
    80   176   177    1
    81   105   106   ar
    82   106   108   ar
    83   136   139    1
    84   136   137    1
    85   180   177    1
    86   174   173   ar
    87   109   110   ar
    88    50    49    2
    89   139   140    1
    90   139   141    1
    91   172   173    1
    92   172   169    1
    93   177   178    1
    94    29    28    1
    95   173   175   ar
    96    23    22    2
    97   171   170    2
    98   108   110   ar
    99    22    21    1
   100    63    62    1
   101   170   169    1
   102   138   137    2
   103    24    21    1
   104    24    25    1
   105    26    25    1
   106    26    27    1
   107   178   179    2
   108   169   168    1
   109    21    20    1
   110    28    27    2
   111    28    30    1
   112    64    62    1
   113   124   123    1
   114   167   165    1
   115    62    59    1
   116    10     9    1
   117   125   123    1
   118   123   122    1
   119   200   198    1
   120   165   164    2
   121   165   166    1
   122    58    59    1
   123     7     8    1
   124     7     6    1
   125   198   197    2
   126   198   199    1
   127    59    60    1
   128     9     8    2
   129     9    11    1
   130   146   147    1
   131   146   143    1
   132   197   196    1
   133   133   132    2
   134   164   163    1
   135   129   128    2
   136   122   119    1
   137   118   119    1
   138   190   191    1
   139   128   127    1
   140    72    70   ar
   141    71    70   ar
   142   132   131    1
   143   132   134   am
   144     6     5    1
   145   196   195    1
   146    70    69    1
   147   195   194    1
   148   131   130    1
   149    60    65   am
   150    60    61    2
   151   130   127    1
   152   119   120    1
   153   143   142    1
   154   143   144    1
   155   212   211    1
   156    65    66    1
   157   163   162    1
   158   127   126    1
   159   156   154   ar
   160     5     2    1
   161   191   194    1
   162   191   192    1
   163    18    17    1
   164   160   159    2
   165    69    66    1
   166   162   161    1
   167   154   153    1
   168   154   155   ar
   169   211   209   ar
   170   211   210   ar
   171   159   158    1
   172   144   148   am
   173   144   145    2
   174    66    67    1
   175   148   149    1
   176   120   121    2
   177   153   152    1
   178   209   207   ar
   179   192   193    2
   180     1     2    1
   181   161   158    1
   182    17    19    1
   183    17    16    1
   184     2     3    1
   185   210   208   ar
   186   152   149    1
   187   158   157    1
   188   149   150    1
   189   207   206   ar
   190    67    68    2
   191     3    12   am
   192     3     4    2
   193   208   206   ar
   194    16    13    1
   195    12    13    1
   196   206   205    1
   197   150   151    2
   198    13    14    1
   199   201   202    1
   200   205   202    1
   201   202   203    1
   202    14    15    2
   203   203   204    2
