@<TRIPOS>MOLECULE
tmp/1msmA00.pdb
 129 120 0 0 0
SMALL
GASTEIGER

@<TRIPOS>ATOM
      1  N          3.0080   23.5860   17.3190 N.3     8  ARG8       -0.1245
      2  CA         4.1800   24.2980   16.8240 C.3     8  ARG8        0.1563
      3  C          3.7590   25.6800   16.3440 C.2     8  ARG8        0.2260
      4  O          2.7590   25.8230   15.6460 O.2     8  ARG8       -0.2867
      5  CB         4.8270   23.5300   15.6730 C.3     8  ARG8        0.0307
      6  CG         5.4400   22.2030   16.0790 C.3     8  ARG8        0.0489
      7  CD         6.2360   21.6110   14.9360 C.3     8  ARG8        0.2205
      8  NE         7.0200   20.4540   15.3610 N.pl3   8  ARG8       -0.0865
      9  CZ         8.0500   19.9620   14.6800 C.cat   8  ARG8        0.5346
     10  NH1        8.4230   20.5270   13.5390 N.pl3   8  ARG8        0.1354
     11  NH2        8.7120   18.9080   15.1390 N.pl3   8  ARG8        0.1354
     12  N          8.8200   28.1560   11.4390 N.3    23  LEU23      -0.1245
     13  CA         8.6400   27.9880   12.8770 C.3    23  LEU23       0.1561
     14  C          9.3120   29.0790   13.7040 C.2    23  LEU23       0.2260
     15  O         10.5050   29.3420   13.5430 O.2    23  LEU23      -0.2867
     16  CB         9.2050   26.6250   13.2790 C.3    23  LEU23       0.0270
     17  CG         9.2450   26.2030   14.7460 C.3    23  LEU23       0.0019
     18  CD1        7.8440   25.8860   15.2300 C.3    23  LEU23       0.0001
     19  CD2       10.1380   24.9740   14.8750 C.3    23  LEU23       0.0001
     20  N         11.1490   30.0340   16.4840 N.3    25  ASP25      -0.1239
     21  CA        12.0160   29.2740   17.3810 C.3    25  ASP25       0.1674
     22  C         12.9280   30.0960   18.2970 C.2    25  ASP25       0.2266
     23  O         13.9560   30.5990   17.8590 O.2    25  ASP25      -0.2867
     24  CB        12.8500   28.3440   16.4970 C.3    25  ASP25       0.1410
     25  CG        13.7390   27.4090   17.2790 C.2    25  ASP25       0.3668
     26  OD1       13.7010   27.4290   18.5220 O.co2  25  ASP25      -0.2456
     27  OD2       14.4800   26.6470   16.6210 O.co2  25  ASP25      -0.2456
     28  N         14.7510   28.9700   20.5310 N.3    27  GLY27      -0.1210
     29  CA        15.9550   28.2030   20.8150 C.3    27  GLY27       0.1956
     30  C         17.0340   28.3690   19.7540 C.2    27  GLY27       0.2612
     31  O         18.1970   28.0480   19.9890 O.2    27  GLY27      -0.2717
     32  N         16.6450   28.8760   18.5860 N.am   28  ALA28      -0.1965
     33  CA        17.5710   29.0800   17.4760 C.3    28  ALA28       0.1728
     34  C         18.2150   30.4650   17.5400 C.2    28  ALA28       0.2616
     35  O         17.5170   31.4750   17.6000 O.2    28  ALA28      -0.2715
     36  CB        16.8300   28.9120   16.1450 C.3    28  ALA28       0.0334
     37  N         19.5450   30.5120   17.5280 N.am   29  ASP29      -0.1957
     38  CA        20.2480   31.7920   17.5750 C.3    29  ASP29       0.1840
     39  C         20.0300   32.5480   16.2690 C.2    29  ASP29       0.2622
     40  O         19.9370   33.7760   16.2510 O.2    29  ASP29      -0.2715
     41  CB        21.7570   31.5880   17.7740 C.3    29  ASP29       0.1450
     42  CG        22.0900   30.8540   19.0620 C.2    29  ASP29       0.3671
     43  OD1       21.3900   31.0640   20.0700 O.co2  29  ASP29      -0.2456
     44  OD2       23.0640   30.0770   19.0650 O.co2  29  ASP29      -0.2456
     45  N         19.9470   31.8000   15.1740 N.am   30  ASP30      -0.1971
     46  CA        19.7680   32.3900   13.8610 C.3    30  ASP30       0.1709
     47  C         18.6050   31.7930   13.0910 C.2    30  ASP30       0.2293
     48  O         17.8600   30.9570   13.6020 O.2    30  ASP30      -0.2864
     49  CB        21.0590   32.2510   13.0520 C.3    30  ASP30       0.1436
     50  CG        22.0930   33.3010   13.4260 C.2    30  ASP30       0.3671
     51  OD1       21.8720   34.4890   13.1110 O.co2  30  ASP30      -0.2456
     52  OD2       23.1180   32.9430   14.0380 O.co2  30  ASP30      -0.2456
     53  N         17.3340   29.7040    9.7340 N.3    32  VAL32      -0.1245
     54  CA        17.7490   28.7770    8.6860 C.3    32  VAL32       0.1561
     55  C         16.5530   28.3600    7.8330 C.2    32  VAL32       0.2260
     56  O         15.5160   27.9240    8.3440 O.2    32  VAL32      -0.2867
     57  CB        18.4530   27.5140    9.2700 C.3    32  VAL32       0.0252
     58  CG1       17.5370   26.7900   10.2400 C.3    32  VAL32       0.0019
     59  CG2       18.8710   26.5810    8.1380 C.3    32  VAL32       0.0019
     60  N         29.0530   27.6360    6.5530 N.3    45  LYS45      -0.1245
     61  CA        28.9590   27.6030    8.0040 C.3    45  LYS45       0.1561
     62  C         28.3140   26.3080    8.4780 C.2    45  LYS45       0.2260
     63  O         27.5680   25.6730    7.7390 O.2    45  LYS45      -0.2867
     64  CB        28.1320   28.7950    8.4940 C.3    45  LYS45       0.0271
     65  CG        27.9310   28.8410    9.9890 C.3    45  LYS45       0.0035
     66  CD        27.0080   29.9810   10.3700 C.3    45  LYS45       0.0206
     67  CE        26.9260   30.1320   11.8770 C.3    45  LYS45       0.1093
     68  NZ        26.0960   31.3090   12.2430 N.3    45  LYS45      -0.1314
     69  N         25.9950   24.5470   11.5970 N.3    47  ILE47      -0.1231
     70  CA        25.1330   24.8160   12.7370 C.3    47  ILE47       0.1692
     71  C         24.7370   23.4600   13.3000 C.2    47  ILE47       0.2593
     72  O         24.5370   22.4980   12.5510 O.2    47  ILE47      -0.2718
     73  CB        23.8700   25.6280   12.3450 C.3    47  ILE47       0.0266
     74  CG1       23.0250   24.8540   11.3330 C.3    47  ILE47       0.0019
     75  CG2       24.2930   26.9850   11.7790 C.3    47  ILE47       0.0020
     76  CD1       21.7260   25.5530   10.9550 C.3    47  ILE47       0.0001
     77  N         24.6350   23.3660   14.6190 N.am   48  GLY48      -0.1942
     78  CA        24.2920   22.0840   15.1980 C.3    48  GLY48       0.2014
     79  C         23.3860   22.1310   16.4010 C.2    48  GLY48       0.2639
     80  O         23.2080   23.1760   17.0260 O.2    48  GLY48      -0.2714
     81  N         22.8110   20.9760   16.7130 N.am   49  GLY49      -0.1939
     82  CA        21.9170   20.8590   17.8490 C.3    49  GLY49       0.2014
     83  C         21.5340   19.4060   18.0360 C.2    49  GLY49       0.2638
     84  O         22.3720   18.5120   17.9090 O.2    49  GLY49      -0.2714
     85  N         20.2670   19.1590   18.3360 N.am   50  ILE50      -0.1977
     86  CA        19.8070   17.7930   18.5240 C.3    50  ILE50       0.1596
     87  C         20.0610   17.0220   17.2330 C.2    50  ILE50       0.2287
     88  O         19.6720   17.4630   16.1510 O.2    50  ILE50      -0.2864
     89  CB        18.2990   17.7590   18.8650 C.3    50  ILE50       0.0276
     90  CG1       18.0630   18.3680   20.2530 C.3    50  ILE50       0.0022
     91  CG2       17.7780   16.3280   18.8070 C.3    50  ILE50       0.0022
     92  CD1       18.6690   17.5660   21.4020 C.3    50  ILE50       0.0001
     93  N         20.3640   31.8320    6.9360 N.3    76  LEU76      -0.1245
     94  CA        21.1440   30.6550    6.5750 C.3    76  LEU76       0.1561
     95  C         20.2950   29.7590    5.6750 C.2    76  LEU76       0.2260
     96  O         19.0990   29.5920    5.9020 O.2    76  LEU76      -0.2867
     97  CB        21.5540   29.8910    7.8390 C.3    76  LEU76       0.0270
     98  CG        22.1540   30.7400    8.9670 C.3    76  LEU76       0.0019
     99  CD1       22.4590   29.8500   10.1660 C.3    76  LEU76       0.0001
    100  CD2       23.4190   31.4440    8.4740 C.3    76  LEU76       0.0001
    101  N         17.7690   22.0500    6.2930 N.3    80  THR80      -0.1204
    102  CA        17.0780   22.0200    7.5730 C.3    80  THR80       0.1979
    103  C         15.7650   21.2610    7.3960 C.2    80  THR80       0.2460
    104  O         15.1240   21.3500    6.3510 O.2    80  THR80      -0.2732
    105  CB        16.7810   23.4490    8.0950 C.3    80  THR80       0.1783
    106  OG1       16.0820   23.3650    9.3430 O.3    80  THR80      -0.2211
    107  CG2       15.9300   24.2280    7.1030 C.3    80  THR80       0.0376
    108  N         15.3610   20.4760    8.4040 N.am   81  PRO81      -0.2717
    109  CA        14.1090   19.7170    8.3120 C.3    81  PRO81       0.1535
    110  C         12.8920   20.6370    8.2980 C.2    81  PRO81       0.2598
    111  O         11.8550   20.3110    7.7200 O.2    81  PRO81      -0.2715
    112  CB        14.1350   18.8530    9.5710 C.3    81  PRO81       0.0310
    113  CG        15.5850   18.6730    9.8400 C.3    81  PRO81       0.0237
    114  CD        16.1440   20.0510    9.5770 C.3    81  PRO81       0.0939
    115  N         13.0360   21.7880    8.9430 N.am   82  VAL82      -0.1978
    116  CA        11.9530   22.7590    9.0590 C.3    82  VAL82       0.1596
    117  C         12.4960   24.1750    8.8960 C.2    82  VAL82       0.2287
    118  O         13.6010   24.4760    9.3620 O.2    82  VAL82      -0.2864
    119  CB        11.2930   22.6560   10.4620 C.3    82  VAL82       0.0276
    120  CG1       10.2130   23.7170   10.6240 C.3    82  VAL82       0.0022
    121  CG2       10.7180   21.2570   10.6670 C.3    82  VAL82       0.0022
    122  N         13.1050   27.6750    9.9170 N.3    84  ILE84      -0.1245
    123  CA        13.1480   28.2380   11.2560 C.3    84  ILE84       0.1561
    124  C         13.4830   29.7210   11.3500 C.2    84  ILE84       0.2260
    125  O         14.4700   30.1800   10.7810 O.2    84  ILE84      -0.2867
    126  CB        14.1770   27.4500   12.1010 C.3    84  ILE84       0.0252
    127  CG1       13.6790   26.0170   12.2930 C.3    84  ILE84       0.0019
    128  CG2       14.4380   28.1550   13.4390 C.3    84  ILE84       0.0019
    129  CD1       14.7390   25.0610   12.7650 C.3    84  ILE84       0.0001
@<TRIPOS>BOND
     1    95    96    2
     2    95    94    1
     3   101   102    1
     4   104   103    2
     5    60    61    1
     6    94    93    1
     7    94    97    1
     8   107   105    1
     9   103   102    1
    10   103   108   am
    11   102   105    1
    12   111   110    2
    13    63    62    2
    14    55    56    2
    15    55    54    1
    16    97    98    1
    17    61    62    1
    18    61    64    1
    19   105   106    1
    20    59    57    1
    21   110   109    1
    22   110   115   am
    23   109   108    1
    24   109   112    1
    25   108   114    1
    26   100    98    1
    27    64    65    1
    28    54    57    1
    29    54    53    1
    30   117   116    1
    31   117   118    2
    32   115   116    1
    33    98    99    1
    34   116   119    1
    35    57    58    1
    36   112   113    1
    37   114   113    1
    38   122   123    1
    39    65    66    1
    40    66    67    1
    41   119   120    1
    42   119   121    1
    43   125   124    2
    44    76    74    1
    45   123   124    1
    46   123   126    1
    47    74    73    1
    48    12    13    1
    49    69    70    1
    50    75    73    1
    51    67    68    1
    52   126   127    1
    53   126   128    1
    54   127   129    1
    55    73    70    1
    56    72    71    2
    57    70    71    1
    58    13    16    1
    59    13    14    1
    60    49    50    1
    61    49    46    1
    62    47    48    2
    63    47    46    1
    64    51    50   ar
    65    16    17    1
    66    71    77   am
    67    50    52   ar
    68    10     9    1
    69    15    14    2
    70    46    45    1
    71    77    78    1
    72     9    11    1
    73     9     8    2
    74    17    19    1
    75    17    18    1
    76     7     8    1
    77     7     6    1
    78    45    39   am
    79    78    79    1
    80     4     3    2
    81     5     6    1
    82     5     2    1
    83    36    33    1
    84    88    87    2
    85    40    39    2
    86    39    38    1
    87     3     2    1
    88    79    81   am
    89    79    80    2
    90    20    21    1
    91    24    25    1
    92    24    21    1
    93    27    25   ar
    94    81    82    1
    95     2     1    1
    96    87    86    1
    97    25    26   ar
    98    21    22    1
    99    33    34    1
   100    33    32    1
   101    37    34   am
   102    37    38    1
   103    34    35    2
   104    38    41    1
   105    41    42    1
   106    82    83    1
   107    23    22    2
   108    84    83    2
   109    83    85   am
   110    85    86    1
   111    86    89    1
   112    32    30   am
   113    91    89    1
   114    89    90    1
   115    42    44   ar
   116    42    43   ar
   117    30    31    2
   118    30    29    1
   119    90    92    1
   120    28    29    1
