@<TRIPOS>MOLECULE
tmp/1mt3A00.pdb
 135 125 0 0 0
SMALL
GASTEIGER

@<TRIPOS>ATOM
      1  N         12.8830    2.4890   12.6860 N.3    33  GLY33      -0.1210
      2  CA        13.7400    3.4460   12.0200 C.3    33  GLY33       0.1956
      3  C         14.4370    4.4180   12.9530 C.2    33  GLY33       0.2612
      4  O         14.7080    4.1020   14.1150 O.2    33  GLY33      -0.2717
      5  N         14.7160    5.6080   12.4240 N.am   34  GLY34      -0.1956
      6  CA        15.4120    6.6400   13.1700 C.3    34  GLY34       0.1869
      7  C         16.6040    7.0950   12.3430 C.2    34  GLY34       0.2309
      8  O         16.4360    7.8510   11.3710 O.2    34  GLY34      -0.2863
      9  N          6.1620    2.4760   16.8460 N.3    40  TYR40      -0.1241
     10  CA         5.4590    2.8970   15.6510 C.3    40  TYR40       0.1605
     11  C          5.2490    1.7800   14.6460 C.2    40  TYR40       0.2264
     12  O          4.5370    1.9730   13.6570 O.2    40  TYR40      -0.2867
     13  CB         6.1410    4.1040   14.9820 C.3    40  TYR40       0.0534
     14  CG         7.3590    3.7980   14.1370 C.ar   40  TYR40      -0.0201
     15  CD1        8.6520    3.8540   14.6720 C.ar   40  TYR40      -0.0009
     16  CD2        7.2170    3.4980   12.7790 C.ar   40  TYR40      -0.0009
     17  CE1        9.7770    3.6230   13.8630 C.ar   40  TYR40       0.0417
     18  CE2        8.3200    3.2640   11.9680 C.ar   40  TYR40       0.0417
     19  CZ         9.5900    3.3320   12.5050 C.ar   40  TYR40       0.1957
     20  OH        10.6590    3.1510   11.6650 O.3    40  TYR40      -0.2866
     21  N         12.5140    2.1480    7.0780 N.3    99  SER99      -0.1202
     22  CA        13.3500    3.2660    7.0280 C.3    99  SER99       0.2020
     23  C         14.8820    3.1180    7.4130 C.2    99  SER99       0.2618
     24  O         15.5290    2.3310    6.6570 O.2    99  SER99      -0.2717
     25  CB        12.7730    4.1190    8.0550 C.3    99  SER99       0.2103
     26  OG        13.2280    5.3980    7.8460 O.3    99  SER99      -0.2182
     27  N         15.3890    3.7580    8.2870 N.am  100  TYR100     -0.1975
     28  CA        16.7960    3.4590    8.6900 C.3   100  TYR100      0.1639
     29  C         16.7700    1.9150    8.9990 C.2   100  TYR100      0.2290
     30  O         17.7350    1.2050    8.7890 O.2   100  TYR100     -0.2864
     31  CB        17.1920    4.2410    9.9200 C.3   100  TYR100      0.0560
     32  CG        18.2980    3.6020   10.7190 C.ar  100  TYR100     -0.0198
     33  CD1       18.0200    2.8310   11.8340 C.ar  100  TYR100     -0.0009
     34  CD2       19.6250    3.6990   10.3050 C.ar  100  TYR100     -0.0009
     35  CE1       19.0340    2.1630   12.5210 C.ar  100  TYR100      0.0417
     36  CE2       20.6440    3.0330   10.9880 C.ar  100  TYR100      0.0417
     37  CZ        20.3440    2.2680   12.0880 C.ar  100  TYR100      0.1957
     38  OH        21.3240    1.5860   12.7700 O.3   100  TYR100     -0.2866
     39  N         16.6820    2.4640    2.4770 N.3   125  LEU125     -0.1245
     40  CA        17.6830    3.0170    1.5910 C.3   125  LEU125      0.1561
     41  C         18.9740    2.1890    1.6150 C.2   125  LEU125      0.2260
     42  O         19.2950    1.5810    2.6200 O.2   125  LEU125     -0.2867
     43  CB        18.0050    4.4370    2.0370 C.3   125  LEU125      0.0270
     44  CG        18.2830    4.5950    3.5300 C.3   125  LEU125      0.0019
     45  CD1       19.6260    5.3360    3.7510 C.3   125  LEU125      0.0001
     46  CD2       17.1660    5.3460    4.2030 C.3   125  LEU125      0.0001
     47  N         22.8720    6.7500    2.1790 N.3   128  VAL128     -0.1245
     48  CA        22.4550    7.9640    2.8670 C.3   128  VAL128      0.1561
     49  C         22.6630    9.1680    1.9460 C.2   128  VAL128      0.2260
     50  O         21.8130   10.0820    1.9140 O.2   128  VAL128     -0.2867
     51  CB        23.2150    8.1750    4.2270 C.3   128  VAL128      0.0252
     52  CG1       22.8670    9.5680    4.8170 C.3   128  VAL128      0.0019
     53  CG2       22.7770    7.1470    5.2510 C.3   128  VAL128      0.0019
     54  N         19.6810    9.3950   -0.4740 N.3   131  THR131     -0.1218
     55  CA        18.5050    9.8040    0.2520 C.3   131  THR131      0.1862
     56  C         18.5380   11.3200    0.4820 C.2   131  THR131      0.2287
     57  O         17.5340   12.0310    0.2400 O.2   131  THR131     -0.2866
     58  CB        18.4280    9.0950    1.6170 C.3   131  THR131      0.1770
     59  OG1       18.3740    7.6770    1.4120 O.3   131  THR131     -0.2211
     60  CG2       17.1740    9.5440    2.3710 C.3   131  THR131      0.0375
     61  N          6.2410   12.3800    5.8550 N.3   175  LEU175     -0.1245
     62  CA         6.4930   11.4300    6.9190 C.3   175  LEU175      0.1561
     63  C          5.2280   10.6140    7.2230 C.2   175  LEU175      0.2260
     64  O          5.2550    9.3790    7.2520 O.2   175  LEU175     -0.2867
     65  CB         6.9670   12.1450    8.1780 C.3   175  LEU175      0.0270
     66  CG         7.3270   11.1630    9.3000 C.3   175  LEU175      0.0019
     67  CD1        8.5220   10.3300    8.8990 C.3   175  LEU175      0.0001
     68  CD2        7.6080   11.9300   10.5860 C.3   175  LEU175      0.0001
     69  N         22.0470   10.1090   13.4500 N.3   201  ASN201     -0.1240
     70  CA        21.3220   10.7580   12.3820 C.3   201  ASN201      0.1653
     71  C         21.5100   12.2690   12.2590 C.2   201  ASN201      0.2266
     72  O         22.0180   12.7570   11.2360 O.2   201  ASN201     -0.2867
     73  CB        19.8340   10.4410   12.4810 C.3   201  ASN201      0.1155
     74  CG        19.0400   11.1320   11.3950 C.2   201  ASN201      0.2627
     75  OD1       18.7240   12.3180   11.5110 O.2   201  ASN201     -0.2716
     76  ND2       18.7420   10.4120   10.3220 N.am  201  ASN201     -0.0877
     77  N         14.8140   14.5380   10.1980 N.3   205  GLU205     -0.1245
     78  CA        14.7340   13.7070    9.0030 C.3   205  GLU205      0.1567
     79  C         15.5170   14.2190    7.8020 C.2   205  GLU205      0.2260
     80  O         16.1570   13.4280    7.1020 O.2   205  GLU205     -0.2867
     81  CB        13.2730   13.5220    8.5900 C.3   205  GLU205      0.0388
     82  CG        12.4250   12.7130    9.5810 C.3   205  GLU205      0.1160
     83  CD        12.9290   11.2820    9.7760 C.2   205  GLU205      0.3649
     84  OE1       14.0620   11.0950   10.2860 O.co2 205  GLU205     -0.2457
     85  OE2       12.1750   10.3510    9.4130 O.co2 205  GLU205     -0.2457
     86  N         20.5930   15.2460    7.9470 N.3   208  ILE208     -0.1245
     87  CA        21.4180   14.1270    8.4010 C.3   208  ILE208      0.1561
     88  C         22.9290   14.4110    8.4430 C.2   208  ILE208      0.2260
     89  O         23.6890   14.1170    7.5230 O.2   208  ILE208     -0.2867
     90  CB        21.0740   12.8450    7.5800 C.3   208  ILE208      0.0252
     91  CG1       22.2500   11.8810    7.5760 C.3   208  ILE208      0.0019
     92  CG2       20.6150   13.2200    6.2200 C.3   208  ILE208      0.0019
     93  CD1       21.9010   10.5550    8.1140 C.3   208  ILE208      0.0001
     94  N         26.1270    8.5120   10.2830 N.3   212  ILE212     -0.1245
     95  CA        25.8240    7.6950    9.1100 C.3   212  ILE212      0.1561
     96  C         25.7840    8.5170    7.8300 C.2   212  ILE212      0.2260
     97  O         25.5000    7.9740    6.7610 O.2   212  ILE212     -0.2867
     98  CB        24.4580    6.9880    9.2100 C.3   212  ILE212      0.0252
     99  CG1       23.3590    8.0300    9.3750 C.3   212  ILE212      0.0019
    100  CG2       24.4710    6.0050   10.3550 C.3   212  ILE212      0.0019
    101  CD1       21.9360    7.4740    9.2880 C.3   212  ILE212      0.0001
    102  N          9.2460   10.5330    2.1270 N.3   237  GLU237     -0.1231
    103  CA        10.4210   11.4070    2.2890 C.3   237  GLU237      0.1699
    104  C         11.6910   10.6830    1.8240 C.2   237  GLU237      0.2592
    105  O         12.6920   11.3160    1.4690 O.2   237  GLU237     -0.2718
    106  CB        10.5850   11.8830    3.7470 C.3   237  GLU237      0.0402
    107  CG        10.6430   10.7860    4.7840 C.3   237  GLU237      0.1161
    108  CD        11.1480   11.2620    6.1350 C.2   237  GLU237      0.3649
    109  OE1       10.9080   12.4280    6.5050 O.co2 237  GLU237     -0.2457
    110  OE2       11.7860   10.4510    6.8270 O.co2 237  GLU237     -0.2457
    111  N         11.6840    9.3500    1.8770 N.am  238  VAL238     -0.1980
    112  CA        12.8210    8.5820    1.3590 C.3   238  VAL238      0.1595
    113  C         12.2230    8.1040    0.0280 C.2   238  VAL238      0.2287
    114  O         11.6290    7.0180   -0.0970 O.2   238  VAL238     -0.2864
    115  CB        13.2320    7.4000    2.2700 C.3   238  VAL238      0.0276
    116  CG1       14.4880    6.7780    1.6690 C.3   238  VAL238      0.0022
    117  CG2       13.5720    7.8920    3.7020 C.3   238  VAL238      0.0022
    118  N          5.8980    8.1000    4.1970 N.3   263  HIS263     -0.1226
    119  CA         6.8620    7.2640    4.9140 C.3   263  HIS263      0.1752
    120  C          6.2360    6.2130    5.8470 C.2   263  HIS263      0.2595
    121  O          6.5550    5.0160    5.7750 O.2   263  HIS263     -0.2718
    122  CB         7.7970    8.1820    5.6950 C.3   263  HIS263      0.0759
    123  CG         9.0900    7.5390    6.0840 C.ar  263  HIS263      0.0818
    124  ND1        9.9640    7.0140    5.1540 N.ar  263  HIS263     -0.2268
    125  CD2        9.6510    7.3280    7.2950 C.ar  263  HIS263      0.1154
    126  CE1       11.0090    6.5050    5.7790 C.ar  263  HIS263      0.1986
    127  NE2       10.8440    6.6820    7.0770 N.ar  263  HIS263     -0.2212
    128  N          5.3170    6.6400    6.7080 N.am  264  LEU264     -0.1980
    129  CA         4.7160    5.6850    7.6390 C.3   264  LEU264      0.1596
    130  C          3.4720    5.0070    7.0710 C.2   264  LEU264      0.2287
    131  O          2.3560    5.1710    7.5720 O.2   264  LEU264     -0.2864
    132  CB         4.4160    6.3620    8.9820 C.3   264  LEU264      0.0297
    133  CG         5.6510    6.9330    9.6870 C.3   264  LEU264      0.0022
    134  CD1        5.3210    7.1740   11.1310 C.3   264  LEU264      0.0001
    135  CD2        6.8220    5.9660    9.5700 C.3   264  LEU264      0.0001
@<TRIPOS>BOND
     1    54    55    1
     2   114   113    2
     3   113   112    1
     4    57    56    2
     5    55    56    1
     6    55    58    1
     7   112   111    1
     8   112   115    1
     9    59    58    1
    10   105   104    2
    11    40    41    1
    12    40    43    1
    13    40    39    1
    14    41    42    2
    15    58    60    1
    16   116   115    1
    17   104   111   am
    18   104   103    1
    19    50    49    2
    20    49    48    1
    21    43    44    1
    22   102   103    1
    23    47    48    1
    24   115   117    1
    25   103   106    1
    26    48    51    1
    27    44    45    1
    28    44    46    1
    29   106   107    1
    30   118   119    1
    31    51    52    1
    32    51    53    1
    33   107   108    1
    34   119   122    1
    35   119   120    1
    36   124   126   ar
    37   124   123   ar
    38   122   123    1
    39   121   120    2
    40   126   127   ar
    41   120   128   am
    42    61    62    1
    43   123   125   ar
    44   108   109   ar
    45   108   110   ar
    46    92    90    1
    47    24    23    2
    48   128   129    1
    49    97    96    2
    50    62    63    1
    51    62    65    1
    52    22    21    1
    53    22    23    1
    54    22    25    1
    55   130   131    2
    56   130   129    1
    57   127   125   ar
    58    80    79    2
    59    63    64    2
    60    23    27   am
    61    89    88    2
    62    91    90    1
    63    91    93    1
    64    90    87    1
    65   129   132    1
    66    79    78    1
    67    96    95    1
    68    26    25    1
    69    86    87    1
    70    65    66    1
    71    27    28    1
    72    87    88    1
    73    81    78    1
    74    81    82    1
    75    28    29    1
    76    28    31    1
    77    30    29    2
    78    67    66    1
    79   132   133    1
    80    78    77    1
    81    95    98    1
    82    95    94    1
    83    98    99    1
    84    98   100    1
    85   101    99    1
    86    66    68    1
    87    85    83   ar
    88   135   133    1
    89    82    83    1
    90   133   134    1
    91    83    84   ar
    92    31    32    1
    93    34    32   ar
    94    34    36   ar
    95    76    74   am
    96    32    33   ar
    97    36    37   ar
    98    72    71    2
    99     8     7    2
   100    74    75    2
   101    74    73    1
   102    20    19    1
   103    33    35   ar
   104    18    19   ar
   105    18    16   ar
   106     2     1    1
   107     2     3    1
   108    37    35   ar
   109    37    38    1
   110    71    70    1
   111     7     6    1
   112    70    73    1
   113    70    69    1
   114     5     3   am
   115     5     6    1
   116    19    17   ar
   117    16    14   ar
   118     3     4    2
   119    12    11    2
   120    17    15   ar
   121    14    15   ar
   122    14    13    1
   123    11    10    1
   124    13    10    1
   125    10     9    1
