@<TRIPOS>MOLECULE
tmp/1mtoC00.pdb
 91 85 0 0 0
SMALL
GASTEIGER

@<TRIPOS>ATOM
      1  N        -24.1960    3.3170   58.4470 N.3    11  GLY11      -0.1225
      2  CA       -25.0620    3.9090   59.4420 C.3    11  GLY11       0.1811
      3  C        -24.4610    3.7720   60.8250 C.2    11  GLY11       0.2280
      4  O        -24.0600    2.6730   61.2160 O.2    11  GLY11      -0.2866
      5  N        -21.9970    9.1690   53.3370 N.3    72  ARG72      -0.1245
      6  CA       -21.9910    8.3940   52.1040 C.3    72  ARG72       0.1563
      7  C        -21.0750    9.0880   51.1100 C.2    72  ARG72       0.2260
      8  O        -20.7780   10.2750   51.2520 O.2    72  ARG72      -0.2867
      9  CB       -23.4010    8.3150   51.5010 C.3    72  ARG72       0.0307
     10  CG       -24.3810    7.4460   52.2610 C.3    72  ARG72       0.0489
     11  CD       -23.9480    5.9900   52.2340 C.3    72  ARG72       0.2205
     12  NE       -24.8170    5.1360   53.0420 N.pl3  72  ARG72      -0.0865
     13  CZ       -24.9710    5.2490   54.3590 C.cat  72  ARG72       0.5346
     14  NH1      -24.3120    6.1860   55.0370 N.pl3  72  ARG72       0.1354
     15  NH2      -25.7840    4.4200   55.0040 N.pl3  72  ARG72       0.1354
     16  N        -23.0570   -2.1260   63.1690 N.3   125  THR125     -0.1203
     17  CA       -24.3700   -1.8600   62.5710 C.3   125  THR125      0.1994
     18  C        -25.4880   -2.5210   63.3530 C.2   125  THR125      0.2618
     19  O        -25.3160   -3.6210   63.8720 O.2   125  THR125     -0.2717
     20  CB       -24.4780   -2.4110   61.1690 C.3   125  THR125      0.1784
     21  OG1      -25.8630   -2.5540   60.8470 O.3   125  THR125     -0.2211
     22  CG2      -23.8100   -3.7730   61.0740 C.3   125  THR125      0.0376
     23  N        -26.6470   -1.8810   63.4180 N.am  126  ILE126     -0.1965
     24  CA       -27.7370   -2.4920   64.1580 C.3   126  ILE126      0.1727
     25  C        -28.4690   -3.6280   63.4210 C.2   126  ILE126      0.2616
     26  O        -29.1070   -4.4630   64.0620 O.2   126  ILE126     -0.2715
     27  CB       -28.7680   -1.4480   64.6060 C.3   126  ILE126      0.0290
     28  CG1      -29.4810   -0.8500   63.3970 C.3   126  ILE126      0.0022
     29  CG2      -28.0760   -0.3750   65.4060 C.3   126  ILE126      0.0023
     30  CD1      -30.7940   -0.1900   63.7360 C.3   126  ILE126      0.0001
     31  N        -28.3750   -3.6870   62.0940 N.am  127  ASP127     -0.1971
     32  CA       -29.0730   -4.7430   61.3560 C.3   127  ASP127      0.1709
     33  C        -28.5520   -6.1310   61.7020 C.2   127  ASP127      0.2293
     34  O        -29.3040   -7.1050   61.6760 O.2   127  ASP127     -0.2864
     35  CB       -28.9240   -4.5590   59.8500 C.3   127  ASP127      0.1436
     36  CG       -29.0250   -3.1230   59.4260 C.2   127  ASP127      0.3671
     37  OD1      -30.0080   -2.4520   59.7980 O.co2 127  ASP127     -0.2456
     38  OD2      -28.1140   -2.6710   58.7040 O.co2 127  ASP127     -0.2456
     39  N        -36.2430   -2.1880   62.0640 N.3   169  MET169     -0.1230
     40  CA       -35.3700   -2.0980   60.8900 C.3   169  MET169      0.1702
     41  C        -34.5470   -3.3540   60.6910 C.2   169  MET169      0.2593
     42  O        -34.8850   -4.4240   61.1900 O.2   169  MET169     -0.2718
     43  CB       -34.3800   -0.9530   61.0210 C.3   169  MET169      0.0401
     44  CG       -34.9460    0.3200   61.5380 C.3   169  MET169      0.0596
     45  SD       -33.6240    1.5120   61.6630 S.3   169  MET169     -0.1393
     46  CE       -34.5510    3.0570   61.4510 C.3   169  MET169      0.0692
     47  N        -33.4420   -3.1900   59.9690 N.am  170  GLY170     -0.1942
     48  CA       -32.5430   -4.2910   59.6900 C.3   170  GLY170      0.2014
     49  C        -32.4560   -4.6210   58.2100 C.2   170  GLY170      0.2638
     50  O        -32.1080   -5.7410   57.8440 O.2   170  GLY170     -0.2714
     51  N        -32.7600   -3.6520   57.3530 N.am  171  ARG171     -0.1977
     52  CA       -32.7240   -3.8710   55.9080 C.3   171  ARG171      0.1597
     53  C        -33.3790   -5.1840   55.4620 C.2   171  ARG171      0.2287
     54  O        -34.5600   -5.4390   55.7450 O.2   171  ARG171     -0.2864
     55  CB       -31.2800   -3.8140   55.3830 C.3   171  ARG171      0.0334
     56  CG       -30.8360   -2.4150   55.0140 C.3   171  ARG171      0.0492
     57  CD       -29.5670   -2.4140   54.1900 C.3   171  ARG171      0.2205
     58  NE       -28.4200   -2.9160   54.9370 N.pl3 171  ARG171     -0.0865
     59  CZ       -27.1740   -2.9290   54.4690 C.cat 171  ARG171      0.5346
     60  NH1      -26.9070   -2.4680   53.2530 N.pl3 171  ARG171      0.1354
     61  NH2      -26.1930   -3.4060   55.2200 N.pl3 171  ARG171      0.1354
     62  N        -38.8950   -4.6500   58.6450 N.3   222  GLU222     -0.1245
     63  CA       -39.0670   -3.6730   57.5870 C.3   222  GLU222      0.1567
     64  C        -38.6680   -4.2730   56.2620 C.2   222  GLU222      0.2260
     65  O        -39.1620   -3.8480   55.2190 O.2   222  GLU222     -0.2867
     66  CB       -38.2280   -2.4320   57.8580 C.3   222  GLU222      0.0388
     67  CG       -36.8440   -2.4990   57.2850 C.3   222  GLU222      0.1160
     68  CD       -36.0820   -1.2070   57.4650 C.2   222  GLU222      0.3649
     69  OE1      -36.6560   -0.1210   57.2260 O.co2 222  GLU222     -0.2457
     70  OE2      -34.8980   -1.2840   57.8360 O.co2 222  GLU222     -0.2457
     71  N        -35.3050    5.7020   63.6770 N.3   249  HIS249     -0.1241
     72  CA       -33.8780    5.5930   63.9570 C.3   249  HIS249      0.1621
     73  C        -33.6240    5.7440   65.4400 C.2   249  HIS249      0.2264
     74  O        -32.4940    5.9320   65.8750 O.2   249  HIS249     -0.2867
     75  CB       -33.0960    6.6420   63.1950 C.3   249  HIS249      0.0745
     76  CG       -33.3100    6.5810   61.7200 C.ar  249  HIS249      0.0817
     77  ND1      -34.5470    6.7770   61.1430 N.ar  249  HIS249     -0.2268
     78  CD2      -32.4490    6.3530   60.7010 C.ar  249  HIS249      0.1154
     79  CE1      -34.4360    6.6740   59.8310 C.ar  249  HIS249      0.1986
     80  NE2      -33.1740    6.4170   59.5370 N.ar  249  HIS249     -0.2212
     81  N        -31.4160    3.4860   65.9230 N.3   252  ARG252     -0.1245
     82  CA       -30.0400    3.7780   65.5060 C.3   252  ARG252      0.1563
     83  C        -29.1810    4.4430   66.5780 C.2   252  ARG252      0.2260
     84  O        -27.9510    4.4480   66.4930 O.2   252  ARG252     -0.2867
     85  CB       -30.0570    4.6660   64.2630 C.3   252  ARG252      0.0307
     86  CG       -30.5370    3.9580   63.0240 C.3   252  ARG252      0.0489
     87  CD       -29.4220    3.1490   62.3910 C.3   252  ARG252      0.2205
     88  NE       -28.3920    4.0210   61.8260 N.pl3 252  ARG252     -0.0865
     89  CZ       -28.6100    4.9080   60.8560 C.cat 252  ARG252      0.5346
     90  NH1      -29.8280    5.0360   60.3380 N.pl3 252  ARG252      0.1354
     91  NH2      -27.6180    5.6750   60.4140 N.pl3 252  ARG252      0.1354
@<TRIPOS>BOND
     1     7     8    2
     2     7     6    1
     3     9     6    1
     4     9    10    1
     5     6     5    1
     6    11    10    1
     7    11    12    1
     8    12    13    2
     9    60    59    1
    10    57    58    1
    11    57    56    1
    12    13    15    1
    13    13    14    1
    14    59    58    2
    15    59    61    1
    16    56    55    1
    17    65    64    2
    18    55    52    1
    19    53    54    2
    20    53    52    1
    21    52    51    1
    22    64    63    1
    23    69    68   ar
    24    67    68    1
    25    67    66    1
    26    51    49   am
    27    68    70   ar
    28    63    66    1
    29    63    62    1
    30    50    49    2
    31    49    48    1
    32     1     2    1
    33    38    36   ar
    34    36    37   ar
    35    36    35    1
    36     2     3    1
    37    80    79   ar
    38    80    78   ar
    39    48    47    1
    40    79    77   ar
    41    35    32    1
    42    47    41   am
    43    90    89    1
    44    91    89    1
    45    41    40    1
    46    41    42    2
    47    78    76   ar
    48     3     4    2
    49    21    20    1
    50    89    88    2
    51    40    43    1
    52    40    39    1
    53    43    44    1
    54    22    20    1
    55    77    76   ar
    56    20    17    1
    57    32    33    1
    58    32    31    1
    59    46    45    1
    60    44    45    1
    61    34    33    2
    62    76    75    1
    63    88    87    1
    64    31    25   am
    65    87    86    1
    66    17    16    1
    67    17    18    1
    68    86    85    1
    69    75    72    1
    70    18    23   am
    71    18    19    2
    72    28    30    1
    73    28    27    1
    74    23    24    1
    75    25    26    2
    76    25    24    1
    77    71    72    1
    78    72    73    1
    79    24    27    1
    80    85    82    1
    81    27    29    1
    82    73    74    2
    83    82    81    1
    84    82    83    1
    85    84    83    2
