@<TRIPOS>MOLECULE
tmp/1mtrA00.pdb
 105 98 0 0 0
SMALL
GASTEIGER

@<TRIPOS>ATOM
      1  N          3.9410   -5.2210   27.9780 N.3     8  ARG8       -0.1245
      2  CA         3.3450   -4.5040   26.8560 C.3     8  ARG8        0.1563
      3  C          2.2480   -3.6160   27.4370 C.2     8  ARG8        0.2260
      4  O          1.4910   -4.0390   28.3250 O.2     8  ARG8       -0.2867
      5  CB         2.7080   -5.4830   25.8860 C.3     8  ARG8        0.0307
      6  CG         3.6800   -6.1850   25.0050 C.3     8  ARG8        0.0489
      7  CD         2.9180   -6.9790   23.9930 C.3     8  ARG8        0.2205
      8  NE         3.8030   -7.8520   23.2060 N.pl3   8  ARG8       -0.0865
      9  CZ         3.4910   -8.3480   22.0100 C.cat   8  ARG8        0.5346
     10  NH1        2.3150   -8.0500   21.4470 N.pl3   8  ARG8        0.1354
     11  NH2        4.3500   -9.1500   21.3800 N.pl3   8  ARG8        0.1354
     12  N         -2.8960   -2.1120   22.2480 N.3    23  LEU23      -0.1245
     13  CA        -1.5560   -1.6780   22.6030 C.3    23  LEU23       0.1561
     14  C         -1.3920   -0.1720   22.3650 C.2    23  LEU23       0.2260
     15  O         -1.7700    0.3350   21.2970 O.2    23  LEU23      -0.2867
     16  CB        -0.5700   -2.4600   21.7300 C.3    23  LEU23       0.0270
     17  CG         0.9290   -2.3270   21.9430 C.3    23  LEU23       0.0019
     18  CD1        1.3300   -3.0530   23.2320 C.3    23  LEU23       0.0001
     19  CD2        1.6380   -2.9480   20.7450 C.3    23  LEU23       0.0001
     20  N          0.7120    2.4390   21.3340 N.3    25  ASP25      -0.1239
     21  CA         1.9200    2.3770   20.5100 C.3    25  ASP25       0.1674
     22  C          2.3600    3.7450   19.9920 C.2    25  ASP25       0.2266
     23  O          1.8370    4.2370   18.9950 O.2    25  ASP25      -0.2867
     24  CB         1.5610    1.4220   19.3500 C.3    25  ASP25       0.1410
     25  CG         2.7020    1.1350   18.4280 C.2    25  ASP25       0.3668
     26  OD1        3.5870    1.9780   18.2460 O.co2  25  ASP25      -0.2456
     27  OD2        2.6750    0.0400   17.8460 O.co2  25  ASP25      -0.2456
     28  N          4.9850    4.3810   18.4530 N.3    27  GLY27      -0.1210
     29  CA         5.6910    4.2450   17.1900 C.3    27  GLY27       0.1956
     30  C          4.7230    4.1730   16.0360 C.2    27  GLY27       0.2612
     31  O          5.1170    4.1790   14.8750 O.2    27  GLY27      -0.2717
     32  N          3.4400    4.1430   16.3480 N.am   28  ALA28      -0.1965
     33  CA         2.3980    4.0700   15.3080 C.3    28  ALA28       0.1728
     34  C          1.7730    5.4240   14.9980 C.2    28  ALA28       0.2616
     35  O          1.2060    6.0580   15.8730 O.2    28  ALA28      -0.2715
     36  CB         1.2670    3.0550   15.7380 C.3    28  ALA28       0.0334
     37  N          1.8710    5.8750   13.7510 N.am   29  ASP29      -0.1957
     38  CA         1.2210    7.1380   13.3750 C.3    29  ASP29       0.1840
     39  C         -0.2880    6.9660   13.4710 C.2    29  ASP29       0.2622
     40  O         -0.9870    7.8600   13.9090 O.2    29  ASP29      -0.2715
     41  CB         1.4940    7.5030   11.9250 C.3    29  ASP29       0.1450
     42  CG         2.9400    7.7040   11.6220 C.2    29  ASP29       0.3671
     43  OD1        3.7330    8.0350   12.5290 O.co2  29  ASP29      -0.2456
     44  OD2        3.2710    7.5650   10.4290 O.co2  29  ASP29      -0.2456
     45  N         -0.7840    5.8190   13.0000 N.am   30  ASP30      -0.1971
     46  CA        -2.2210    5.5390   12.9760 C.3    30  ASP30       0.1709
     47  C         -2.6460    4.4210   13.8720 C.2    30  ASP30       0.2293
     48  O         -1.8280    3.6760   14.3830 O.2    30  ASP30      -0.2864
     49  CB        -2.6510    5.1980   11.5610 C.3    30  ASP30       0.1436
     50  CG        -2.1460    6.2100   10.5460 C.2    30  ASP30       0.3671
     51  OD1       -2.4710    7.4140   10.6810 O.co2  30  ASP30      -0.2456
     52  OD2       -1.4090    5.7970    9.6250 O.co2  30  ASP30      -0.2456
     53  N         -4.5950    0.9420   14.1180 N.3    32  VAL32      -0.1245
     54  CA        -4.9680   -0.2280   13.3050 C.3    32  VAL32       0.1561
     55  C         -5.6130   -1.2900   14.2170 C.2    32  VAL32       0.2260
     56  O         -5.0280   -1.7060   15.2070 O.2    32  VAL32      -0.2867
     57  CB        -3.7470   -0.8230   12.5570 C.3    32  VAL32       0.0252
     58  CG1       -4.2340   -1.8570   11.5770 C.3    32  VAL32       0.0019
     59  CG2       -2.9740    0.2610   11.8170 C.3    32  VAL32       0.0019
     60  N         -1.1210    0.8180    4.2020 N.3    47  ILE47      -0.1231
     61  CA        -0.1660    1.3330    5.1890 C.3    47  ILE47       0.1692
     62  C          0.9610    0.3280    5.3010 C.2    47  ILE47       0.2593
     63  O          0.7690   -0.8550    5.0360 O.2    47  ILE47      -0.2718
     64  CB        -0.8400    1.4920    6.5920 C.3    47  ILE47       0.0266
     65  CG1       -1.3220    0.1310    7.1010 C.3    47  ILE47       0.0019
     66  CG2       -2.0530    2.4210    6.5160 C.3    47  ILE47       0.0020
     67  CD1       -1.9560    0.1970    8.4620 C.3    47  ILE47       0.0001
     68  N          2.1280    0.7820    5.7150 N.am   48  GLY48      -0.1942
     69  CA         3.2350   -0.1410    5.8630 C.3    48  GLY48       0.2014
     70  C          3.9130   -0.0060    7.2080 C.2    48  GLY48       0.2639
     71  O          3.8740    1.0550    7.8300 O.2    48  GLY48      -0.2714
     72  N          4.4710   -1.1030    7.6880 N.am   49  GLY49      -0.1939
     73  CA         5.1720   -1.0760    8.9530 C.3    49  GLY49       0.2014
     74  C          6.4350   -1.8560    8.6740 C.2    49  GLY49       0.2638
     75  O          6.8420   -1.9530    7.5090 O.2    49  GLY49      -0.2714
     76  N          7.0300   -2.4440    9.7190 N.am   50  ILE50      -0.1977
     77  CA         8.2850   -3.2210    9.6110 C.3    50  ILE50       0.1596
     78  C          8.4180   -4.2590    8.4970 C.2    50  ILE50       0.2287
     79  O          9.3890   -4.2450    7.7230 O.2    50  ILE50      -0.2864
     80  CB         8.6210   -3.9230   10.9810 C.3    50  ILE50       0.0276
     81  CG1        9.0470   -2.8750   11.9880 C.3    50  ILE50       0.0022
     82  CG2        9.7480   -4.9650   10.8280 C.3    50  ILE50       0.0022
     83  CD1       10.4280   -2.3600   11.7470 C.3    50  ILE50       0.0001
     84  N         -1.5930   -8.3940   14.0450 N.3    80  PRO80      -0.2102
     85  CA        -1.2980   -9.2920   15.1580 C.3    80  PRO80       0.1504
     86  C         -1.9890   -8.8200   16.4160 C.2    80  PRO80       0.2575
     87  O         -2.4150   -9.6280   17.2270 O.2    80  PRO80      -0.2718
     88  CB         0.2100   -9.1400   15.3220 C.3    80  PRO80       0.0282
     89  CG         0.6670   -8.7990   13.9450 C.3    80  PRO80       0.0208
     90  CD        -0.3560   -7.8430   13.4610 C.3    80  PRO80       0.0893
     91  N         -2.1230   -7.5040   16.5540 N.am   81  VAL81      -0.1980
     92  CA        -2.7010   -6.9020   17.7700 C.3    81  VAL81       0.1595
     93  C         -3.3740   -5.5500   17.4470 C.2    81  VAL81       0.2287
     94  O         -3.0640   -4.9280   16.4240 O.2    81  VAL81      -0.2864
     95  CB        -1.5380   -6.7040   18.8190 C.3    81  VAL81       0.0276
     96  CG1       -0.4770   -5.7780   18.2540 C.3    81  VAL81       0.0022
     97  CG2       -2.0470   -6.1730   20.1480 C.3    81  VAL81       0.0022
     98  N         -3.7770   -1.8300   17.7030 N.3    83  ILE83      -0.1245
     99  CA        -2.7900   -0.7830   17.9320 C.3    83  ILE83       0.1561
    100  C         -3.4130    0.5940   18.0080 C.2    83  ILE83       0.2260
    101  O         -4.0780    1.0370   17.0690 O.2    83  ILE83      -0.2867
    102  CB        -1.7770   -0.7660   16.7640 C.3    83  ILE83       0.0252
    103  CG1       -0.9590   -2.0570   16.7860 C.3    83  ILE83       0.0019
    104  CG2       -0.9070    0.4960   16.7960 C.3    83  ILE83       0.0019
    105  CD1       -0.5000   -2.5170   15.4190 C.3    83  ILE83       0.0001
@<TRIPOS>BOND
     1    60    61    1
     2    63    62    2
     3    61    62    1
     4    61    64    1
     5    62    68   am
     6    68    69    1
     7    69    70    1
     8    66    64    1
     9    64    65    1
    10    65    67    1
    11    70    72   am
    12    70    71    2
    13    75    74    2
    14    72    73    1
    15    79    78    2
    16    78    77    1
    17    74    73    1
    18    74    76   am
    19    77    76    1
    20    77    80    1
    21    52    50   ar
    22    44    42   ar
    23    50    51   ar
    24    50    49    1
    25    82    80    1
    26    80    81    1
    27    49    46    1
    28    58    57    1
    29    42    41    1
    30    42    43   ar
    31    83    81    1
    32    59    57    1
    33    41    38    1
    34    57    54    1
    35    46    45    1
    36    46    47    1
    37    45    39   am
    38    54    53    1
    39    54    55    1
    40    38    39    1
    41    38    37    1
    42    90    89    1
    43    90    84    1
    44    39    40    2
    45    37    34   am
    46    47    48    2
    47    89    88    1
    48    84    85    1
    49    55    56    2
    50    31    30    2
    51    34    33    1
    52    34    35    2
    53    85    88    1
    54    85    86    1
    55    33    36    1
    56    33    32    1
    57   105   103    1
    58    30    32   am
    59    30    29    1
    60    86    91   am
    61    86    87    2
    62    94    93    2
    63    91    92    1
    64   102   103    1
    65   102   104    1
    66   102    99    1
    67   101   100    2
    68    29    28    1
    69    93    92    1
    70    98    99    1
    71    92    95    1
    72    27    25   ar
    73    99   100    1
    74    26    25   ar
    75    96    95    1
    76    25    24    1
    77    95    97    1
    78    23    22    2
    79    24    21    1
    80    22    21    1
    81    21    20    1
    82    19    17    1
    83    15    14    2
    84    11     9    1
    85    10     9    1
    86    16    17    1
    87    16    13    1
    88    17    18    1
    89     9     8    2
    90    12    13    1
    91    14    13    1
    92     8     7    1
    93     7     6    1
    94     6     5    1
    95     5     2    1
    96     2     3    1
    97     2     1    1
    98     3     4    2
