@<TRIPOS>MOLECULE
tmp/1mtvA00.pdb
 166 163 0 0 0
SMALL
GASTEIGER

@<TRIPOS>ATOM
      1  N         36.1170   23.6000   45.4270 N.3    40  HIS40      -0.1241
      2  CA        37.0600   24.6760   45.7470 C.3    40  HIS40       0.1621
      3  C         38.1500   24.8420   44.6850 C.2    40  HIS40       0.2264
      4  O         38.9580   25.7680   44.7490 O.2    40  HIS40      -0.2867
      5  CB        37.6260   24.5510   47.1860 C.3    40  HIS40       0.0745
      6  CG        38.8470   23.6890   47.3220 C.ar   40  HIS40       0.0817
      7  ND1       38.8170   22.4480   47.9220 N.ar   40  HIS40      -0.2268
      8  CD2       40.1420   23.9040   46.9830 C.ar   40  HIS40       0.1154
      9  CE1       40.0320   21.9330   47.9420 C.ar   40  HIS40       0.1986
     10  NE2       40.8550   22.7970   47.3770 N.ar   40  HIS40      -0.2212
     11  N         31.5030   27.6250   50.4510 N.3    78  SER78      -0.1202
     12  CA        32.9200   27.9560   50.4080 C.3    78  SER78       0.2020
     13  C         33.5600   28.2620   51.7580 C.2    78  SER78       0.2619
     14  O         34.7830   28.2230   51.8840 O.2    78  SER78      -0.2717
     15  CB        33.1620   29.1090   49.4280 C.3    78  SER78       0.2103
     16  OG        32.4610   30.2740   49.8280 O.3    78  SER78      -0.2182
     17  N         32.7430   28.5620   52.7640 N.am   79  ASN79      -0.1960
     18  CA        33.2560   28.8800   54.0960 C.3    79  ASN79       0.1819
     19  C         33.5970   27.6260   54.8980 C.2    79  ASN79       0.2622
     20  O         34.5710   27.6130   55.6560 O.2    79  ASN79      -0.2715
     21  CB        32.2300   29.6870   54.9110 C.3    79  ASN79       0.1195
     22  CG        32.1630   31.1610   54.5210 C.2    79  ASN79       0.2630
     23  OD1       31.2830   31.8800   54.9890 O.2    79  ASN79      -0.2716
     24  ND2       33.0920   31.6200   53.6980 N.am   79  ASN79      -0.0877
     25  N         32.7790   26.5900   54.7350 N.am   80  THR80      -0.1937
     26  CA        32.9380   25.3410   55.4760 C.3    80  THR80       0.2028
     27  C         33.4050   24.1620   54.6250 C.2    80  THR80       0.2642
     28  O         33.7430   23.0980   55.1540 O.2    80  THR80      -0.2714
     29  CB        31.6030   24.9330   56.1190 C.3    80  THR80       0.1808
     30  OG1       30.6470   24.6340   55.0920 O.3    80  THR80      -0.2208
     31  CG2       31.0580   26.0630   56.9940 C.3    80  THR80       0.0379
     32  N         33.3710   24.3450   53.3090 N.am   81  LEU81      -0.1977
     33  CA        33.7470   23.3190   52.3420 C.3    81  LEU81       0.1596
     34  C         32.8250   22.1080   52.3700 C.2    81  LEU81       0.2287
     35  O         33.2020   21.0180   51.9410 O.2    81  LEU81      -0.2864
     36  CB        35.2150   22.9070   52.4780 C.3    81  LEU81       0.0297
     37  CG        36.1500   23.6120   51.4830 C.3    81  LEU81       0.0022
     38  CD1       36.0950   25.1170   51.6510 C.3    81  LEU81       0.0001
     39  CD2       37.5660   23.1270   51.6660 C.3    81  LEU81       0.0001
     40  N         33.3300   20.6930   65.6330 N.3   154  GLY154     -0.1210
     41  CA        32.3230   21.4990   64.9760 C.3   154  GLY154      0.1956
     42  C         32.5730   21.8180   63.5130 C.2   154  GLY154      0.2611
     43  O         31.9040   22.6920   62.9770 O.2   154  GLY154     -0.2717
     44  N         33.5120   21.1320   62.8610 N.am  155  GLN155     -0.1979
     45  CA        33.7970   21.4080   61.4520 C.3   155  GLN155      0.1601
     46  C         33.5790   20.2280   60.5040 C.2   155  GLN155      0.2287
     47  O         33.6680   20.3880   59.2860 O.2   155  GLN155     -0.2864
     48  CB        35.2190   21.9690   61.2890 C.3   155  GLN155      0.0394
     49  CG        35.4500   23.2590   62.0640 C.3   155  GLN155      0.0908
     50  CD        36.7360   23.9800   61.7060 C.2   155  GLN155      0.2608
     51  OE1       36.7900   25.2100   61.7260 O.2   155  GLN155     -0.2717
     52  NE2       37.7830   23.2230   61.3940 N.am  155  GLN155     -0.0878
     53  N         50.2930   12.2470   54.5430 N.3   171  ASP171     -0.1225
     54  CA        49.0460   12.9810   54.3080 C.3   171  ASP171      0.1805
     55  C         49.0340   13.5940   52.9080 C.2   171  ASP171      0.2598
     56  O         50.0570   13.6060   52.2180 O.2   171  ASP171     -0.2718
     57  CB        48.9800   14.1160   55.3550 C.3   171  ASP171      0.1424
     58  CG        47.6360   14.8130   55.4160 C.2   171  ASP171      0.3668
     59  OD1       46.6340   14.3070   54.8830 O.co2 171  ASP171     -0.2456
     60  OD2       47.5890   15.8940   56.0300 O.co2 171  ASP171     -0.2456
     61  N         47.8560   14.0140   52.4550 N.am  172  SER172     -0.1938
     62  CA        47.7450   14.7090   51.1820 C.3   172  SER172      0.2055
     63  C         48.0990   16.1480   51.5610 C.2   172  SER172      0.2643
     64  O         48.2890   16.4490   52.7480 O.2   172  SER172     -0.2714
     65  CB        46.3310   14.6020   50.6000 C.3   172  SER172      0.2130
     66  OG        45.3470   14.9850   51.5410 O.3   172  SER172     -0.2179
     67  N         48.1870   17.0420   50.5880 N.am  173  CYS173     -0.1953
     68  CA        48.5540   18.4150   50.9020 C.3   173  CYS173      0.1843
     69  C         48.0530   19.3520   49.8080 C.2   173  CYS173      0.2625
     70  O         47.3330   18.9240   48.9100 O.2   173  CYS173     -0.2714
     71  CB        50.0850   18.4970   51.0330 C.3   173  CYS173      0.0997
     72  SG        50.7120   20.0000   51.8330 S.3   173  CYS173     -0.0797
     73  N         48.4000   20.6320   49.9090 N.am  174  GLN174     -0.1977
     74  CA        48.0030   21.6180   48.9140 C.3   174  GLN174      0.1601
     75  C         48.5510   21.1520   47.5730 C.2   174  GLN174      0.2287
     76  O         49.7110   20.7290   47.4810 O.2   174  GLN174     -0.2864
     77  CB        48.5990   22.9890   49.2330 C.3   174  GLN174      0.0394
     78  CG        48.0980   23.6450   50.5070 C.3   174  GLN174      0.0908
     79  CD        48.6730   25.0380   50.6890 C.2   174  GLN174      0.2608
     80  OE1       49.2900   25.5920   49.7780 O.2   174  GLN174     -0.2717
     81  NE2       48.4660   25.6160   51.8600 N.am  174  GLN174     -0.0878
     82  N         44.4880   18.7610   46.0230 N.3   177  SER177     -0.1217
     83  CA        43.0590   19.0910   46.0210 C.3   177  SER177      0.1889
     84  C         42.3110   18.6040   44.7840 C.2   177  SER177      0.2288
     85  O         42.7920   18.7610   43.6610 O.2   177  SER177     -0.2866
     86  CB        42.8760   20.6010   46.1550 C.3   177  SER177      0.2089
     87  OG        43.3250   21.0530   47.4160 O.3   177  SER177     -0.2183
     88  N         40.1680   14.7990   47.6380 N.3   191  VAL191     -0.1231
     89  CA        41.0330   15.5910   48.5250 C.3   191  VAL191      0.1692
     90  C         40.3740   16.9550   48.7130 C.2   191  VAL191      0.2593
     91  O         40.2030   17.7020   47.7420 O.2   191  VAL191     -0.2718
     92  CB        42.4460   15.7670   47.9320 C.3   191  VAL191      0.0266
     93  CG1       43.3250   16.5630   48.8830 C.3   191  VAL191      0.0020
     94  CG2       43.0730   14.4010   47.6420 C.3   191  VAL191      0.0020
     95  N         40.0100   17.2790   49.9520 N.am  192  SER192     -0.1938
     96  CA        39.3150   18.5350   50.2400 C.3   192  SER192      0.2055
     97  C         40.1140   19.5450   51.0630 C.2   192  SER192      0.2643
     98  O         40.4760   20.6090   50.5560 O.2   192  SER192     -0.2714
     99  CB        37.9730   18.2320   50.9260 C.3   192  SER192      0.2130
    100  OG        37.1230   19.3650   50.9630 O.3   192  SER192     -0.2179
    101  N         40.3770   19.2380   52.3290 N.am  193  TRP193     -0.1959
    102  CA        41.1170   20.1660   53.1820 C.3   193  TRP193      0.1771
    103  C         41.7570   19.5000   54.3900 C.2   193  TRP193      0.2620
    104  O         41.7660   18.2750   54.5020 O.2   193  TRP193     -0.2715
    105  CB        40.2110   21.3130   53.6470 C.3   193  TRP193      0.0590
    106  CG        39.0320   20.8690   54.4700 C.ar  193  TRP193      0.0006
    107  CD1       37.8700   20.3170   54.0060 C.ar  193  TRP193      0.0946
    108  CD2       38.8940   20.9580   55.8940 C.ar  193  TRP193      0.0152
    109  NE1       37.0220   20.0590   55.0510 N.ar  193  TRP193     -0.2442
    110  CE2       37.6220   20.4370   56.2230 C.ar  193  TRP193      0.0810
    111  CE3       39.7200   21.4260   56.9270 C.ar  193  TRP193      0.0012
    112  CZ2       37.1560   20.3680   57.5430 C.ar  193  TRP193      0.0191
    113  CZ3       39.2600   21.3560   58.2360 C.ar  193  TRP193      0.0001
    114  CH2       37.9860   20.8320   58.5310 C.ar  193  TRP193      0.0015
    115  N         42.3340   20.3240   55.2590 N.am  194  GLY194     -0.1940
    116  CA        42.9740   19.8580   56.4760 C.3   194  GLY194      0.2014
    117  C         43.6640   21.0290   57.1510 C.2   194  GLY194      0.2640
    118  O         43.4590   22.1790   56.7640 O.2   194  GLY194     -0.2714
    119  N         44.4190   20.7540   58.2050 N.am  195  SER195     -0.1935
    120  CA        45.1660   21.7930   58.9060 C.3   195  SER195      0.2055
    121  C         46.6370   21.4820   58.6790 C.2   195  SER195      0.2644
    122  O         47.1840   20.5510   59.2810 O.2   195  SER195     -0.2714
    123  CB        44.8370   21.7910   60.3980 C.3   195  SER195      0.2130
    124  OG        45.6740   22.6890   61.1150 O.3   195  SER195     -0.2179
    125  N         47.2690   22.2560   57.8000 N.am  196  GLY196     -0.1939
    126  CA        48.6630   22.0280   57.4740 C.3   196  GLY196      0.2014
    127  C         48.7510   20.7270   56.7010 C.2   196  GLY196      0.2639
    128  O         47.7680   20.3120   56.0730 O.2   196  GLY196     -0.2714
    129  N         49.9070   20.0740   56.7440 N.am  197  CYS197     -0.1967
    130  CA        50.0850   18.8010   56.0520 C.3   197  CYS197      0.1712
    131  C         50.9500   17.8530   56.8610 C.2   197  CYS197      0.2296
    132  O         52.0310   18.2230   57.3150 O.2   197  CYS197     -0.2864
    133  CB        50.7060   19.0090   54.6750 C.3   197  CYS197      0.0983
    134  SG        49.7040   20.0650   53.5890 S.3   197  CYS197     -0.0798
    135  N         46.1190   15.8810   63.0230 N.3   202  LYS202     -0.1245
    136  CA        45.4380   16.7200   62.0480 C.3   202  LYS202      0.1561
    137  C         45.3870   15.9500   60.7380 C.2   202  LYS202      0.2260
    138  O         46.1120   16.2650   59.7870 O.2   202  LYS202     -0.2867
    139  CB        46.1840   18.0500   61.8600 C.3   202  LYS202      0.0271
    140  CG        46.0990   18.9900   63.0570 C.3   202  LYS202      0.0035
    141  CD        44.6710   19.4760   63.2630 C.3   202  LYS202      0.0206
    142  CE        44.5420   20.3140   64.5150 C.3   202  LYS202      0.1093
    143  NZ        43.1500   20.8150   64.7310 N.3   202  LYS202     -0.1314
    144  N         43.8760   14.3090   57.0960 N.3   204  GLY204     -0.1210
    145  CA        43.2490   14.9550   55.9570 C.3   204  GLY204      0.1956
    146  C         41.7420   14.7710   55.9760 C.2   204  GLY204      0.2612
    147  O         41.2340   13.7900   56.5220 O.2   204  GLY204     -0.2717
    148  N         41.0250   15.7470   55.4290 N.am  205  VAL205     -0.1965
    149  CA        39.5710   15.6980   55.3440 C.3   205  VAL205      0.1727
    150  C         39.2060   15.5440   53.8660 C.2   205  VAL205      0.2616
    151  O         39.7550   16.2320   52.9990 O.2   205  VAL205     -0.2715
    152  CB        38.9140   16.9580   55.9310 C.3   205  VAL205      0.0290
    153  CG1       37.4030   16.7810   55.9780 C.3   205  VAL205      0.0023
    154  CG2       39.4690   17.2380   57.3350 C.3   205  VAL205      0.0023
    155  N         38.3090   14.6080   53.5840 N.am  206  TYR206     -0.1974
    156  CA        37.9060   14.2950   52.2210 C.3   206  TYR206      0.1639
    157  C         36.3970   14.3230   52.0290 C.2   206  TYR206      0.2290
    158  O         35.6450   14.0520   52.9640 O.2   206  TYR206     -0.2864
    159  CB        38.4300   12.8990   51.8620 C.3   206  TYR206      0.0560
    160  CG        39.9250   12.7680   52.0230 C.ar  206  TYR206     -0.0198
    161  CD1       40.4950   12.4660   53.2660 C.ar  206  TYR206     -0.0009
    162  CD2       40.7760   13.0150   50.9510 C.ar  206  TYR206     -0.0009
    163  CE1       41.8850   12.4240   53.4270 C.ar  206  TYR206      0.0417
    164  CE2       42.1620   12.9750   51.1000 C.ar  206  TYR206      0.0417
    165  CZ        42.7050   12.6810   52.3370 C.ar  206  TYR206      0.1957
    166  OH        44.0700   12.6520   52.4590 O.3   206  TYR206     -0.2866
@<TRIPOS>BOND
     1    85    84    2
     2     3     4    2
     3     3     2    1
     4    84    83    1
     5     1     2    1
     6     2     5    1
     7    83    82    1
     8    83    86    1
     9    86    87    1
    10     8     6   ar
    11     8    10   ar
    12     5     6    1
    13     6     7   ar
    14    10     9   ar
    15    76    75    2
    16    75    74    1
    17    88    89    1
    18    94    92    1
    19    91    90    2
    20     7     9   ar
    21    92    89    1
    22    92    93    1
    23    89    90    1
    24    90    95   am
    25    70    69    2
    26    74    77    1
    27    74    73    1
    28    77    78    1
    29    15    16    1
    30    15    12    1
    31    80    79    2
    32    69    73   am
    33    69    68    1
    34    95    96    1
    35    96    99    1
    36    96    97    1
    37    12    11    1
    38    12    13    1
    39    78    79    1
    40    98    97    2
    41    67    68    1
    42    67    63   am
    43    65    62    1
    44    65    66    1
    45    79    81   am
    46    68    71    1
    47    99   100    1
    48   162   164   ar
    49   162   160   ar
    50    71    72    1
    51    97   101   am
    52   164   165   ar
    53    62    63    1
    54    62    61    1
    55    37    38    1
    56    37    39    1
    57    37    36    1
    58    63    64    2
    59    13    14    2
    60    13    17   am
    61    72   134    1
    62   159   160    1
    63   159   156    1
    64    35    34    2
    65   160   161   ar
    66   157   156    1
    67   157   158    2
    68    56    55    2
    69   156   155    1
    70   101   102    1
    71   165   166    1
    72   165   163   ar
    73    33    34    1
    74    33    36    1
    75    33    32    1
    76    61    55   am
    77    17    18    1
    78    55    54    1
    79   151   150    2
    80   102   105    1
    81   102   103    1
    82   161   163   ar
    83    32    27   am
    84   155   150   am
    85   134   133    1
    86   105   106    1
    87    24    22   am
    88   150   149    1
    89   107   106   ar
    90   107   109   ar
    91    18    19    1
    92    18    21    1
    93    54    53    1
    94    54    57    1
    95   103   104    2
    96   103   115   am
    97   106   108   ar
    98    22    21    1
    99    22    23    2
   100    27    28    2
   101    27    26    1
   102   133   130    1
   103    25    19   am
   104    25    26    1
   105    59    58   ar
   106    19    20    2
   107   109   110   ar
   108    30    29    1
   109   115   116    1
   110   149   148    1
   111   149   152    1
   112    57    58    1
   113    58    60   ar
   114   148   146   am
   115    26    29    1
   116   108   110   ar
   117   108   111   ar
   118   152   153    1
   119   152   154    1
   120   145   146    1
   121   145   144    1
   122   146   147    2
   123   130   129    1
   124   130   131    1
   125   128   127    2
   126    29    31    1
   127   110   112   ar
   128   116   117    1
   129   127   129   am
   130   127   126    1
   131   118   117    2
   132   131   132    2
   133   111   113   ar
   134   117   119   am
   135   126   125    1
   136   112   114   ar
   137   125   121   am
   138   119   120    1
   139   113   114   ar
   140   121   120    1
   141   121   122    2
   142   120   123    1
   143    47    46    2
   144   138   137    2
   145   123   124    1
   146    46    45    1
   147   137   136    1
   148    48    45    1
   149    48    49    1
   150    52    50   am
   151    45    44    1
   152    50    51    2
   153    50    49    1
   154   139   136    1
   155   139   140    1
   156   136   135    1
   157    44    42   am
   158    43    42    2
   159   140   141    1
   160   141   142    1
   161    42    41    1
   162   142   143    1
   163    41    40    1
