@<TRIPOS>MOLECULE
tmp/1mu0A00.pdb
 161 150 0 0 0
SMALL
GASTEIGER

@<TRIPOS>ATOM
      1  N         16.1150    5.9370   12.8350 N.3    37  GLY37      -0.1210
      2  CA        16.8810    6.8300   13.6850 C.3    37  GLY37       0.1940
      3  C         18.1640    7.2290   12.9790 C.2    37  GLY37       0.2453
      4  O         18.1050    7.9250   11.9640 O.2    37  GLY37      -0.2732
      5  N         19.3400    6.8050   13.4750 N.am   38  PRO38      -0.2728
      6  CA        19.5690    5.9690   14.6630 C.3    38  PRO38       0.1401
      7  C         19.0950    6.6630   15.9400 C.2    38  PRO38       0.2269
      8  O         18.9580    7.8830   15.9720 O.2    38  PRO38      -0.2865
      9  CB        21.0880    5.7730   14.6660 C.3    38  PRO38       0.0296
     10  CG        21.4730    5.9520   13.2240 C.3    38  PRO38       0.0237
     11  CD        20.6130    7.1050   12.7990 C.3    38  PRO38       0.0939
     12  N         16.1100    5.7210   18.0410 N.3    40  MET40      -0.1245
     13  CA        14.6600    5.8310   18.1460 C.3    40  MET40       0.1570
     14  C         14.1540    4.5990   18.8860 C.2    40  MET40       0.2261
     15  O         14.7990    4.1400   19.8290 O.2    40  MET40      -0.2867
     16  CB        14.0180    5.9260   16.7580 C.3    40  MET40       0.0387
     17  CG        14.3490    7.2120   16.0150 C.3    40  MET40       0.0595
     18  SD        13.4260    7.4210   14.4680 S.3    40  MET40      -0.1393
     19  CE        12.1070    8.5260   15.0020 C.3    40  MET40       0.0692
     20  N          7.2140    3.3730   17.0120 N.3    44  TYR44      -0.1241
     21  CA         6.5700    3.8420   15.7850 C.3    44  TYR44       0.1605
     22  C          6.3240    2.7740   14.7170 C.2    44  TYR44       0.2264
     23  O          5.7290    3.0610   13.6740 O.2    44  TYR44      -0.2867
     24  CB         7.3610    4.9990   15.1690 C.3    44  TYR44       0.0534
     25  CG         8.5300    4.5750   14.3240 C.ar   44  TYR44      -0.0201
     26  CD1        9.7120    4.1270   14.9070 C.ar   44  TYR44      -0.0009
     27  CD2        8.4580    4.6280   12.9350 C.ar   44  TYR44      -0.0009
     28  CE1       10.7940    3.7460   14.1280 C.ar   44  TYR44       0.0417
     29  CE2        9.5360    4.2480   12.1470 C.ar   44  TYR44       0.0417
     30  CZ        10.6980    3.8110   12.7510 C.ar   44  TYR44       0.1957
     31  OH        11.7710    3.4470   11.9770 O.3    44  TYR44      -0.2866
     32  N         13.8930    2.7470    7.4970 N.3   105  SER105     -0.1202
     33  CA        14.8050    3.8850    7.5100 C.3   105  SER105      0.2020
     34  C         16.2170    3.3910    7.8330 C.2   105  SER105      0.2618
     35  O         16.7680    2.5540    7.1200 O.2   105  SER105     -0.2717
     36  CB        14.3450    4.9100    8.5540 C.3   105  SER105      0.2103
     37  OG        14.8740    6.2180    8.2970 O.3   105  SER105     -0.2182
     38  N         16.8070    3.9100    8.9020 N.am  106  TYR106     -0.1975
     39  CA        18.1420    3.4810    9.2890 C.3   106  TYR106      0.1639
     40  C         18.1290    1.9780    9.5250 C.2   106  TYR106      0.2290
     41  O         19.1240    1.2880    9.2740 O.2   106  TYR106     -0.2864
     42  CB        18.5860    4.2090   10.5550 C.3   106  TYR106      0.0560
     43  CG        19.7120    3.5250   11.2920 C.ar  106  TYR106     -0.0198
     44  CD1       19.4570    2.7560   12.4240 C.ar  106  TYR106     -0.0009
     45  CD2       21.0340    3.6610   10.8670 C.ar  106  TYR106     -0.0009
     46  CE1       20.4940    2.1410   13.1240 C.ar  106  TYR106      0.0417
     47  CE2       22.0800    3.0500   11.5590 C.ar  106  TYR106      0.0417
     48  CZ        21.8030    2.2950   12.6870 C.ar  106  TYR106      0.1957
     49  OH        22.8300    1.7080   13.3940 O.3   106  TYR106     -0.2866
     50  N         18.1780    2.9160    2.9140 N.3   131  LEU131     -0.1245
     51  CA        19.2350    3.4020    2.0400 C.3   131  LEU131      0.1561
     52  C         20.4710    2.5230    2.1780 C.2   131  LEU131      0.2260
     53  O         20.6500    1.8280    3.1810 O.2   131  LEU131     -0.2867
     54  CB        19.6130    4.8420    2.3960 C.3   131  LEU131      0.0270
     55  CG        20.1890    5.0570    3.8010 C.3   131  LEU131      0.0019
     56  CD1       21.0550    6.3080    3.8170 C.3   131  LEU131      0.0001
     57  CD2       19.0620    5.1530    4.8200 C.3   131  LEU131      0.0001
     58  N         24.5320    6.8710    2.5550 N.3   134  VAL134     -0.1245
     59  CA        24.0920    8.0840    3.2240 C.3   134  VAL134      0.1561
     60  C         24.3460    9.2960    2.3250 C.2   134  VAL134      0.2260
     61  O         23.4520   10.1140    2.1100 O.2   134  VAL134     -0.2867
     62  CB        24.8090    8.2540    4.5810 C.3   134  VAL134      0.0252
     63  CG1       24.3920    9.5640    5.2410 C.3   134  VAL134      0.0019
     64  CG2       24.4580    7.0800    5.4900 C.3   134  VAL134      0.0019
     65  N         21.5340    9.6530   -0.1030 N.3   137  THR137     -0.1203
     66  CA        20.3030   10.1160    0.5170 C.3   137  THR137      0.1994
     67  C         20.4160   11.5930    0.8660 C.2   137  THR137      0.2617
     68  O         19.4370   12.3360    0.7800 O.2   137  THR137     -0.2717
     69  CB        19.9980    9.3280    1.7950 C.3   137  THR137      0.1784
     70  OG1       19.9170    7.9310    1.4860 O.3   137  THR137     -0.2211
     71  CG2       18.6780    9.7830    2.3870 C.3   137  THR137      0.0376
     72  N         21.6140   12.0100    1.2620 N.am  138  VAL138     -0.1979
     73  CA        21.8600   13.4020    1.6100 C.3   138  VAL138      0.1595
     74  C         21.6660   14.2670    0.3700 C.2   138  VAL138      0.2287
     75  O         20.9860   15.2930    0.4140 O.2   138  VAL138     -0.2864
     76  CB        23.2970   13.5980    2.1420 C.3   138  VAL138      0.0276
     77  CG1       23.5790   15.0790    2.3610 C.3   138  VAL138      0.0022
     78  CG2       23.4730   12.8250    3.4410 C.3   138  VAL138      0.0022
     79  N         17.9920   14.5520   -0.3740 N.3   141  MET141     -0.1245
     80  CA        17.2530   15.4140    0.5420 C.3   141  MET141      0.1570
     81  C         17.4840   16.8980    0.2680 C.2   141  MET141      0.2261
     82  O         16.5650   17.7070    0.4050 O.2   141  MET141     -0.2867
     83  CB        17.6130   15.0920    1.9970 C.3   141  MET141      0.0387
     84  CG        17.1530   13.7130    2.4600 C.3   141  MET141      0.0595
     85  SD        17.3240   13.4670    4.2510 S.3   141  MET141     -0.1393
     86  CE        19.1260   13.3880    4.4080 C.3   141  MET141      0.0692
     87  N          8.4280   13.1070    6.1360 N.3   182  LEU182     -0.1245
     88  CA         8.6130   12.1180    7.1960 C.3   182  LEU182      0.1561
     89  C          7.3090   11.3680    7.4660 C.2   182  LEU182      0.2260
     90  O          7.2890   10.1370    7.5390 O.2   182  LEU182     -0.2867
     91  CB         9.0930   12.7880    8.4860 C.3   182  LEU182      0.0270
     92  CG         9.3810   11.8150    9.6350 C.3   182  LEU182      0.0019
     93  CD1       10.5370   10.9020    9.2440 C.3   182  LEU182      0.0001
     94  CD2        9.7090   12.5850   10.9070 C.3   182  LEU182      0.0001
     95  N         23.2900   10.3100   13.9030 N.3   209  ASN209     -0.1240
     96  CA        22.5250   11.0400   12.8980 C.3   209  ASN209      0.1653
     97  C         22.8850   12.5210   12.8380 C.2   209  ASN209      0.2266
     98  O         23.6020   12.9580   11.9390 O.2   209  ASN209     -0.2867
     99  CB        21.0250   10.8830   13.1650 C.3   209  ASN209      0.1155
    100  CG        20.1740   11.6180   12.1520 C.2   209  ASN209      0.2627
    101  OD1       20.1920   12.8480   12.0810 O.2   209  ASN209     -0.2716
    102  ND2       19.4260   10.8670   11.3560 N.am  209  ASN209     -0.0877
    103  N         16.5240   15.1480   10.7360 N.3   213  GLU213     -0.1245
    104  CA        16.4960   14.2400    9.5920 C.3   213  GLU213      0.1567
    105  C         17.2630   14.7280    8.3630 C.2   213  GLU213      0.2260
    106  O         17.8950   13.9310    7.6690 O.2   213  GLU213     -0.2867
    107  CB        15.0410   13.9490    9.2010 C.3   213  GLU213      0.0388
    108  CG        14.2400   13.2590   10.2950 C.3   213  GLU213      0.1160
    109  CD        14.5590   11.7770   10.4130 C.2   213  GLU213      0.3649
    110  OE1       14.5670   11.2570   11.5490 O.co2 213  GLU213     -0.2457
    111  OE2       14.7860   11.1280    9.3690 O.co2 213  GLU213     -0.2457
    112  N         22.3390   15.7610    8.6730 N.3   216  ILE216     -0.1245
    113  CA        23.1810   14.6940    9.2000 C.3   216  ILE216      0.1561
    114  C         24.6630   15.0660    9.2930 C.2   216  ILE216      0.2260
    115  O         25.3310   15.3020    8.2870 O.2   216  ILE216     -0.2867
    116  CB        23.0190   13.4040    8.3610 C.3   216  ILE216      0.0252
    117  CG1       23.9870   12.3320    8.8580 C.3   216  ILE216      0.0019
    118  CG2       23.2480   13.7040    6.8950 C.3   216  ILE216      0.0019
    119  CD1       23.7500   10.9710    8.2480 C.3   216  ILE216      0.0001
    120  N         27.6720    8.6360   10.4580 N.3   220  ILE220     -0.1245
    121  CA        27.3080    7.8200    9.3030 C.3   220  ILE220      0.1561
    122  C         27.2470    8.6480    8.0250 C.2   220  ILE220      0.2260
    123  O         26.9050    8.1350    6.9590 O.2   220  ILE220     -0.2867
    124  CB        25.9470    7.1180    9.5000 C.3   220  ILE220      0.0252
    125  CG1       24.8820    8.1440    9.8890 C.3   220  ILE220      0.0019
    126  CG2       26.0750    6.0240   10.5500 C.3   220  ILE220      0.0019
    127  CD1       23.4890    7.5760    9.9650 C.3   220  ILE220      0.0001
    128  N         11.2650   11.1320    2.4690 N.3   245  GLU245     -0.1231
    129  CA        12.4960   11.8880    2.7090 C.3   245  GLU245      0.1699
    130  C         13.6890   11.1430    2.1120 C.2   245  GLU245      0.2592
    131  O         14.6740   11.7550    1.6990 O.2   245  GLU245     -0.2718
    132  CB        12.7130   12.1160    4.2120 C.3   245  GLU245      0.0402
    133  CG        12.6420   10.8630    5.0700 C.3   245  GLU245      0.1161
    134  CD        13.0270   11.1240    6.5180 C.2   245  GLU245      0.3649
    135  OE1       12.4950   12.0830    7.1180 O.co2 245  GLU245     -0.2457
    136  OE2       13.8570   10.3650    7.0590 O.co2 245  GLU245     -0.2457
    137  N         13.5970    9.8170    2.0850 N.am  246  VAL246     -0.1980
    138  CA        14.6410    8.9910    1.4910 C.3   246  VAL246      0.1595
    139  C         14.0210    8.5250    0.1800 C.2   246  VAL246      0.2287
    140  O         13.5010    7.4120    0.0690 O.2   246  VAL246     -0.2864
    141  CB        15.0000    7.7810    2.3770 C.3   246  VAL246      0.0276
    142  CG1       16.1740    7.0260    1.7690 C.3   246  VAL246      0.0022
    143  CG2       15.3550    8.2500    3.7790 C.3   246  VAL246      0.0022
    144  N          7.7520    8.9230    4.3230 N.3   271  HIS271     -0.1226
    145  CA         8.7000    8.0450    5.0000 C.3   271  HIS271      0.1752
    146  C          8.0660    6.9360    5.8290 C.2   271  HIS271      0.2595
    147  O          8.2900    5.7530    5.5650 O.2   271  HIS271     -0.2718
    148  CB         9.6230    8.8760    5.8910 C.3   271  HIS271      0.0759
    149  CG        10.8340    8.1350    6.3620 C.ar  271  HIS271      0.0818
    150  ND1       11.7320    7.5510    5.4950 N.ar  271  HIS271     -0.2268
    151  CD2       11.3080    7.9020    7.6090 C.ar  271  HIS271      0.1154
    152  CE1       12.7090    6.9910    6.1860 C.ar  271  HIS271      0.1986
    153  NE2       12.4760    7.1900    7.4710 N.ar  271  HIS271     -0.2212
    154  N          7.2920    7.3160    6.8410 N.am  272  LEU272     -0.1980
    155  CA         6.6370    6.3390    7.7050 C.3   272  LEU272      0.1596
    156  C          5.3620    5.8410    7.0390 C.2   272  LEU272      0.2287
    157  O          4.2590    6.2750    7.3730 O.2   272  LEU272     -0.2864
    158  CB         6.3030    6.9680    9.0620 C.3   272  LEU272      0.0297
    159  CG         7.4330    7.7380    9.7520 C.3   272  LEU272      0.0022
    160  CD1        6.9410    8.2400   11.0960 C.3   272  LEU272      0.0001
    161  CD2        8.6560    6.8470    9.9250 C.3   272  LEU272      0.0001
@<TRIPOS>BOND
     1    79    80    1
     2    65    66    1
     3   140   139    2
     4   139   138    1
     5    81    82    2
     6    81    80    1
     7    74    75    2
     8    74    73    1
     9    66    67    1
    10    66    69    1
    11    80    83    1
    12    68    67    2
    13    67    72   am
    14    72    73    1
    15    70    69    1
    16   138   137    1
    17   138   141    1
    18    73    76    1
    19   131   130    2
    20   142   141    1
    21    69    71    1
    22    83    84    1
    23    51    52    1
    24    51    54    1
    25    51    50    1
    26   137   130   am
    27    61    60    2
    28   130   129    1
    29    76    77    1
    30    76    78    1
    31    52    53    2
    32    60    59    1
    33   141   143    1
    34    54    55    1
    35    84    85    1
    36   128   129    1
    37    58    59    1
    38   129   132    1
    39    59    62    1
    40    55    56    1
    41    55    57    1
    42   132   133    1
    43    85    86    1
    44   144   145    1
    45    62    63    1
    46    62    64    1
    47   145   146    1
    48   145   148    1
    49   133   134    1
    50   150   152   ar
    51   150   149   ar
    52   147   146    2
    53   146   154   am
    54   148   149    1
    55    87    88    1
    56   152   153   ar
    57   149   151   ar
    58   134   136   ar
    59   134   135   ar
    60   154   155    1
    61   118   116    1
    62   123   122    2
    63   156   157    2
    64   156   155    1
    65    35    34    2
    66    88    89    1
    67    88    91    1
    68    89    90    2
    69   153   151   ar
    70    32    33    1
    71    33    34    1
    72    33    36    1
    73   106   105    2
    74   155   158    1
    75    34    38   am
    76   122   121    1
    77   119   117    1
    78   115   114    2
    79    37    36    1
    80   116   117    1
    81   116   113    1
    82   105   104    1
    83    91    92    1
    84   112   113    1
    85    38    39    1
    86   158   159    1
    87   113   114    1
    88   107   104    1
    89   107   108    1
    90    93    92    1
    91    41    40    2
    92    39    40    1
    93    39    42    1
    94   121   124    1
    95   121   120    1
    96   111   109   ar
    97   124   125    1
    98   124   126    1
    99   104   103    1
   100    92    94    1
   101   159   161    1
   102   159   160    1
   103   125   127    1
   104   108   109    1
   105   109   110   ar
   106    42    43    1
   107    45    43   ar
   108    45    47   ar
   109    43    44   ar
   110   102   100   am
   111    47    48   ar
   112    98    97    2
   113     4     3    2
   114    31    30    1
   115   101   100    2
   116    29    30   ar
   117    29    27   ar
   118   100    99    1
   119    44    46   ar
   120    48    46   ar
   121    48    49    1
   122    30    28   ar
   123    11    10    1
   124    11     5    1
   125     1     2    1
   126    97    96    1
   127    96    99    1
   128    96    95    1
   129    27    25   ar
   130     3     5   am
   131     3     2    1
   132    10     9    1
   133     5     6    1
   134    23    22    2
   135    28    26   ar
   136    25    26   ar
   137    25    24    1
   138    18    19    1
   139    18    17    1
   140     6     9    1
   141     6     7    1
   142    22    21    1
   143    24    21    1
   144    21    20    1
   145     7     8    2
   146    17    16    1
   147    16    13    1
   148    12    13    1
   149    13    14    1
   150    14    15    2
