@<TRIPOS>MOLECULE
tmp/1mu8B00.pdb
 214 214 0 0 0
SMALL
GASTEIGER

@<TRIPOS>ATOM
      1  N         22.4450   -7.0370   18.5730 N.3    43  HIS43      -0.1241
      2  CA        22.3220   -8.4200   18.1240 C.3    43  HIS43       0.1621
      3  C         21.5760   -8.5290   16.7920 C.2    43  HIS43       0.2264
      4  O         21.5630   -9.5810   16.1720 O.2    43  HIS43      -0.2867
      5  CB        21.6600   -9.3020   19.1940 C.3    43  HIS43       0.0745
      6  CG        20.1670   -9.2110   19.2450 C.ar   43  HIS43       0.0817
      7  ND1       19.5000   -8.4390   20.1730 N.ar   43  HIS43      -0.2268
      8  CD2       19.2090   -9.8350   18.5160 C.ar   43  HIS43       0.1154
      9  CE1       18.1970   -8.5960   20.0170 C.ar   43  HIS43       0.1986
     10  NE2       17.9940   -9.4400   19.0190 N.ar   43  HIS43      -0.2212
     11  N         25.9460  -11.1690   15.6820 N.3    47  TYR47      -0.1241
     12  CA        25.7120  -12.2810   16.5930 C.3    47  TYR47       0.1605
     13  C         26.4030  -13.5120   16.0190 C.2    47  TYR47       0.2264
     14  O         25.7770  -14.3400   15.3630 O.2    47  TYR47      -0.2867
     15  CB        24.2200  -12.5550   16.7790 C.3    47  TYR47       0.0534
     16  CG        23.9500  -13.4640   17.9560 C.ar   47  TYR47      -0.0201
     17  CD1       24.3250  -13.0850   19.2450 C.ar   47  TYR47      -0.0009
     18  CD2       23.3730  -14.7240   17.7810 C.ar   47  TYR47      -0.0009
     19  CE1       24.1420  -13.9350   20.3350 C.ar   47  TYR47       0.0417
     20  CE2       23.1820  -15.5890   18.8700 C.ar   47  TYR47       0.0417
     21  CZ        23.5760  -15.1850   20.1430 C.ar   47  TYR47       0.1957
     22  OH        23.4400  -16.0330   21.2210 O.3    47  TYR47      -0.2866
     23  N         25.1560  -17.3420   15.4210 N.3    50  TRP50      -0.1241
     24  CA        24.2880  -17.6920   14.2960 C.3    50  TRP50       0.1605
     25  C         24.8610  -17.1320   12.9990 C.2    50  TRP50       0.2264
     26  O         24.1380  -16.9140   12.0300 O.2    50  TRP50      -0.2867
     27  CB        22.8690  -17.1460   14.5000 C.3    50  TRP50       0.0550
     28  CG        22.1700  -17.6590   15.7290 C.ar   50  TRP50       0.0003
     29  CD1       22.4960  -18.7640   16.4620 C.ar   50  TRP50       0.0946
     30  CD2       21.0110  -17.0900   16.3550 C.ar   50  TRP50       0.0152
     31  NE1       21.6130  -18.9190   17.5090 N.ar   50  TRP50      -0.2442
     32  CE2       20.6920  -17.9050   17.4660 C.ar   50  TRP50       0.0810
     33  CE3       20.2110  -15.9700   16.0850 C.ar   50  TRP50       0.0012
     34  CZ2       19.6050  -17.6350   18.3090 C.ar   50  TRP50       0.0191
     35  CZ3       19.1270  -15.7000   16.9260 C.ar   50  TRP50       0.0001
     36  CH2       18.8370  -16.5310   18.0240 C.ar   50  TRP50       0.0015
     37  N         25.6580  -14.2890   12.1570 N.3    52  LYS52      -0.1245
     38  CA        25.0450  -13.0380   11.7380 C.3    52  LYS52       0.1561
     39  C         26.0640  -11.9130   11.8800 C.2    52  LYS52       0.2260
     40  O         26.6210  -11.7030   12.9520 O.2    52  LYS52      -0.2867
     41  CB        23.8110  -12.7380   12.5900 C.3    52  LYS52       0.0271
     42  CG        23.1300  -11.4180   12.2440 C.3    52  LYS52       0.0035
     43  CD        21.9850  -11.0920   13.1980 C.3    52  LYS52       0.0206
     44  CE        20.7860  -11.9890   12.9810 C.3    52  LYS52       0.1093
     45  NZ        19.7080  -11.6660   13.9550 N.3    52  LYS52      -0.1314
     46  N         28.1290  -10.4230   23.2780 N.3    92  TRP92      -0.1227
     47  CA        27.3540  -11.4370   22.5600 C.3    92  TRP92       0.1737
     48  C         27.7170  -12.8490   22.9970 C.2    92  TRP92       0.2595
     49  O         26.9750  -13.7920   22.7410 O.2    92  TRP92      -0.2718
     50  CB        27.5610  -11.3230   21.0470 C.3    92  TRP92       0.0564
     51  CG        28.9930  -11.2830   20.6220 C.ar   92  TRP92       0.0003
     52  CD1       29.7600  -10.1680   20.4370 C.ar   92  TRP92       0.0946
     53  CD2       29.8400  -12.4050   20.3350 C.ar   92  TRP92       0.0152
     54  NE1       31.0280  -10.5230   20.0500 N.ar   92  TRP92      -0.2442
     55  CE2       31.1060  -11.8910   19.9790 C.ar   92  TRP92       0.0810
     56  CE3       29.6520  -13.7940   20.3450 C.ar   92  TRP92       0.0012
     57  CZ2       32.1860  -12.7170   19.6340 C.ar   92  TRP92       0.0191
     58  CZ3       30.7270  -14.6200   20.0010 C.ar   92  TRP92       0.0001
     59  CH2       31.9770  -14.0750   19.6500 C.ar   92  TRP92       0.0015
     60  N         28.8600  -12.9850   23.6590 N.am   93  ARG93      -0.1966
     61  CA        29.3250  -14.2900   24.1180 C.3    93  ARG93       0.1729
     62  C         28.5510  -14.8520   25.2980 C.2    93  ARG93       0.2616
     63  O         28.4030  -16.0570   25.4150 O.2    93  ARG93      -0.2715
     64  CB        30.8070  -14.2220   24.4930 C.3    93  ARG93       0.0348
     65  CG        31.7290  -14.0060   23.3160 C.3    93  ARG93       0.0492
     66  CD        33.1760  -13.8930   23.7510 C.3    93  ARG93       0.2205
     67  NE        34.0800  -14.1420   22.6330 N.pl3  93  ARG93      -0.0865
     68  CZ        34.2470  -15.3320   22.0640 C.cat  93  ARG93       0.5346
     69  NH1       33.5760  -16.3850   22.5130 N.pl3  93  ARG93       0.1354
     70  NH2       35.0740  -15.4700   21.0370 N.pl3  93  ARG93       0.1354
     71  N         28.0300  -13.9810   26.1550 N.am   94  GLU94      -0.1963
     72  CA        27.3300  -14.4530   27.3410 C.3    94  GLU94       0.1733
     73  C         25.8610  -14.0850   27.5580 C.2    94  GLU94       0.2616
     74  O         25.0010  -14.9620   27.5710 O.2    94  GLU94      -0.2715
     75  CB        28.1220  -14.0310   28.5770 C.3    94  GLU94       0.0429
     76  CG        27.6560  -14.6680   29.8750 C.3    94  GLU94       0.1163
     77  CD        28.1670  -13.9220   31.0930 C.2    94  GLU94       0.3649
     78  OE1       29.2980  -13.3920   31.0310 O.co2  94  GLU94      -0.2457
     79  OE2       27.4400  -13.8690   32.1110 O.co2  94  GLU94      -0.2457
     80  N         25.5680  -12.7970   27.7340 N.am   95  ASN95      -0.1958
     81  CA        24.1940  -12.3880   28.0290 C.3    95  ASN95       0.1819
     82  C         23.6250  -11.1930   27.2570 C.2    95  ASN95       0.2621
     83  O         22.6340  -10.6290   27.6680 O.2    95  ASN95      -0.2715
     84  CB        24.0940  -12.0840   29.5230 C.3    95  ASN95       0.1195
     85  CG        25.1250  -11.0650   29.9620 C.2    95  ASN95       0.2630
     86  OD1       25.9080  -10.5780   29.1470 O.2    95  ASN95      -0.2716
     87  ND2       25.1380  -10.7430   31.2480 N.am   95  ASN95      -0.0877
     88  N         24.2520  -10.8130   26.1540 N.am   96  LEU96      -0.1977
     89  CA        23.7770   -9.6770   25.3610 C.3    96  LEU96       0.1596
     90  C         23.8100   -8.3720   26.1560 C.2    96  LEU96       0.2287
     91  O         22.9820   -7.4850   25.9550 O.2    96  LEU96      -0.2864
     92  CB        22.3500   -9.9280   24.8420 C.3    96  LEU96       0.0297
     93  CG        22.1610  -11.0720   23.8420 C.3    96  LEU96       0.0022
     94  CD1       20.7720  -10.9650   23.2000 C.3    96  LEU96       0.0001
     95  CD2       23.2380  -10.9950   22.7660 C.3    96  LEU96       0.0001
     96  N         20.2530  -16.8390   33.1690 N.3   171  ILE171     -0.1245
     97  CA        21.1500  -15.8480   32.5770 C.3   171  ILE171      0.1561
     98  C         21.5560  -14.7730   33.5810 C.2   171  ILE171      0.2260
     99  O         20.7450  -14.3260   34.3800 O.2   171  ILE171     -0.2867
    100  CB        20.4840  -15.1540   31.3460 C.3   171  ILE171      0.0252
    101  CG1       20.0290  -16.2080   30.3290 C.3   171  ILE171      0.0019
    102  CG2       21.4690  -14.1970   30.6830 C.3   171  ILE171      0.0019
    103  CD1       21.1540  -17.0450   29.7490 C.3   171  ILE171      0.0001
    104  N          3.9260   -9.7920   25.1980 N.3   191  ASP191     -0.1225
    105  CA         5.3750   -9.8700   25.1600 C.3   191  ASP191      0.1805
    106  C          5.8380   -9.5620   23.7400 C.2   191  ASP191      0.2598
    107  O          5.0220   -9.4930   22.8060 O.2   191  ASP191     -0.2718
    108  CB         5.8000  -11.2950   25.5600 C.3   191  ASP191      0.1424
    109  CG         7.2900  -11.4300   25.8090 C.2   191  ASP191      0.3668
    110  OD1        7.7500  -12.5820   25.9880 O.co2 191  ASP191     -0.2456
    111  OD2        8.0040  -10.4020   25.8320 O.co2 191  ASP191     -0.2456
    112  N          7.1380   -9.3470   23.5830 N.am  192  ALA192     -0.1966
    113  CA         7.7160   -9.1150   22.2720 C.3   192  ALA192      0.1728
    114  C          8.0280  -10.5290   21.7830 C.2   192  ALA192      0.2616
    115  O          7.9110  -11.4820   22.5460 O.2   192  ALA192     -0.2715
    116  CB         8.9860   -8.3060   22.3860 C.3   192  ALA192      0.0334
    117  N          8.4260  -10.6720   20.5250 N.am  193  CYS193     -0.1954
    118  CA         8.7280  -11.9960   19.9860 C.3   193  CYS193      0.1843
    119  C          9.7150  -11.8420   18.8360 C.2   193  CYS193      0.2625
    120  O         10.1930  -10.7380   18.5760 O.2   193  CYS193     -0.2714
    121  CB         7.4320  -12.6690   19.5040 C.3   193  CYS193      0.0997
    122  SG         7.5190  -14.4830   19.2140 S.3   193  CYS193     -0.0797
    123  N         10.0220  -12.9430   18.1490 N.am  194  GLU194     -0.1977
    124  CA        10.9650  -12.8980   17.0340 C.3   194  GLU194      0.1602
    125  C         10.5380  -11.8320   16.0370 C.2   194  GLU194      0.2287
    126  O          9.3700  -11.7410   15.6950 O.2   194  GLU194     -0.2864
    127  CB        11.0340  -14.2570   16.3310 C.3   194  GLU194      0.0415
    128  CG        11.2600  -15.4260   17.2770 C.3   194  GLU194      0.1163
    129  CD        11.6450  -16.7020   16.5510 C.2   194  GLU194      0.3649
    130  OE1       11.7080  -17.7630   17.2100 O.co2 194  GLU194     -0.2457
    131  OE2       11.8930  -16.6410   15.3240 O.co2 194  GLU194     -0.2457
    132  N         12.8510   -7.6060   17.9040 N.3   197  SER197     -0.1217
    133  CA        14.1480   -7.1540   18.4180 C.3   197  SER197      0.1889
    134  C         14.5780   -5.8070   17.8630 C.2   197  SER197      0.2288
    135  O         14.3320   -5.4950   16.6890 O.2   197  SER197     -0.2866
    136  CB        15.2460   -8.1780   18.1020 C.3   197  SER197      0.2089
    137  OG        15.0270   -9.3920   18.7910 O.3   197  SER197     -0.2183
    138  N         14.0980   -3.5360   22.7410 N.3   217  VAL217     -0.1231
    139  CA        13.7410   -4.9540   22.8290 C.3   217  VAL217      0.1692
    140  C         15.0390   -5.7310   22.6490 C.2   217  VAL217      0.2593
    141  O         15.6850   -5.6360   21.6030 O.2   217  VAL217     -0.2718
    142  CB        12.7390   -5.3590   21.7070 C.3   217  VAL217      0.0266
    143  CG1       12.4100   -6.8700   21.7950 C.3   217  VAL217      0.0020
    144  CG2       11.4630   -4.5470   21.8390 C.3   217  VAL217      0.0020
    145  N         15.4300   -6.5000   23.6630 N.am  218  SER218     -0.1938
    146  CA        16.6890   -7.2330   23.5750 C.3   218  SER218      0.2055
    147  C         16.5780   -8.7560   23.5190 C.2   218  SER218      0.2643
    148  O         16.9170   -9.3550   22.5100 O.2   218  SER218     -0.2714
    149  CB        17.6130   -6.8330   24.7340 C.3   218  SER218      0.2130
    150  OG        18.8730   -7.4610   24.5980 O.3   218  SER218     -0.2179
    151  N         16.1330   -9.3850   24.6010 N.am  219  TRP219     -0.1959
    152  CA        16.0250  -10.8410   24.5890 C.3   219  TRP219      0.1771
    153  C         14.9840  -11.4090   25.5330 C.2   219  TRP219      0.2620
    154  O         14.4240  -10.7120   26.3780 O.2   219  TRP219     -0.2715
    155  CB        17.3880  -11.4920   24.8850 C.3   219  TRP219      0.0590
    156  CG        17.9540  -11.1720   26.2530 C.ar  219  TRP219      0.0006
    157  CD1       18.7010  -10.0800   26.5970 C.ar  219  TRP219      0.0946
    158  CD2       17.7870  -11.9360   27.4590 C.ar  219  TRP219      0.0152
    159  NE1       19.0100  -10.1140   27.9400 N.ar  219  TRP219     -0.2442
    160  CE2       18.4590  -11.2400   28.4930 C.ar  219  TRP219      0.0810
    161  CE3       17.1320  -13.1370   27.7670 C.ar  219  TRP219      0.0012
    162  CZ2       18.4960  -11.7100   29.8140 C.ar  219  TRP219      0.0191
    163  CZ3       17.1680  -13.6020   29.0820 C.ar  219  TRP219      0.0001
    164  CH2       17.8450  -12.8860   30.0880 C.ar  219  TRP219      0.0015
    165  N         14.7310  -12.7000   25.3700 N.am  220  GLY220     -0.1940
    166  CA        13.7600  -13.3830   26.1970 C.3   220  GLY220      0.2014
    167  C         13.9030  -14.8730   25.9550 C.2   220  GLY220      0.2639
    168  O         14.6570  -15.2940   25.0920 O.2   220  GLY220     -0.2714
    169  N         13.1810  -15.6670   26.7270 N.am  221  GLU221     -0.1963
    170  CA        13.2340  -17.1150   26.5870 C.3   221  GLU221      0.1733
    171  C         11.8300  -17.5300   26.1910 C.2   221  GLU221      0.2617
    172  O         10.9550  -17.6950   27.0310 O.2   221  GLU221     -0.2715
    173  CB        13.6560  -17.7440   27.9150 C.3   221  GLU221      0.0429
    174  CG        14.9630  -17.1610   28.4490 C.3   221  GLU221      0.1163
    175  CD        15.3540  -17.7090   29.8150 C.2   221  GLU221      0.3649
    176  OE1       15.7560  -18.8900   29.8940 O.co2 221  GLU221     -0.2457
    177  OE2       15.2560  -16.9570   30.8060 O.co2 221  GLU221     -0.2457
    178  N         11.6310  -17.6850   24.8890 N.am  222  GLY222     -0.1940
    179  CA        10.3180  -18.0260   24.3820 C.3   222  GLY222      0.2014
    180  C          9.5670  -16.7130   24.2700 C.2   222  GLY222      0.2639
    181  O         10.1760  -15.6380   24.3620 O.2   222  GLY222     -0.2714
    182  N          8.2570  -16.7800   24.0760 N.am  223  CYS223     -0.1967
    183  CA         7.4570  -15.5700   23.9710 C.3   223  CYS223      0.1712
    184  C          6.1790  -15.7110   24.7660 C.2   223  CYS223      0.2296
    185  O          5.4160  -16.6600   24.5780 O.2   223  CYS223     -0.2864
    186  CB         7.1200  -15.2720   22.5110 C.3   223  CYS223      0.0983
    187  SG         8.5640  -15.1070   21.4910 S.3   223  CYS223     -0.0798
    188  N         10.3420  -10.3710   29.3690 N.3   230  GLY230     -0.1210
    189  CA        11.1760   -9.8850   28.2930 C.3   230  GLY230      0.1956
    190  C         12.2180   -8.9430   28.8580 C.2   230  GLY230      0.2612
    191  O         11.9490   -8.2220   29.7980 O.2   230  GLY230     -0.2717
    192  N         13.4110   -8.9590   28.2820 N.am  231  PHE231     -0.1962
    193  CA        14.4800   -8.0920   28.7410 C.3   231  PHE231      0.1771
    194  C         14.7850   -7.0120   27.7350 C.2   231  PHE231      0.2619
    195  O         14.7970   -7.2540   26.5240 O.2   231  PHE231     -0.2715
    196  CB        15.7370   -8.9020   29.0460 C.3   231  PHE231      0.0574
    197  CG        15.6390   -9.6630   30.3270 C.ar  231  PHE231     -0.0200
    198  CD1       14.8860  -10.8260   30.3990 C.ar  231  PHE231     -0.0042
    199  CD2       16.2280   -9.1710   31.4870 C.ar  231  PHE231     -0.0042
    200  CE1       14.7140  -11.4930   31.6120 C.ar  231  PHE231     -0.0003
    201  CE2       16.0630   -9.8280   32.7060 C.ar  231  PHE231     -0.0003
    202  CZ        15.3050  -10.9910   32.7670 C.ar  231  PHE231     -0.0000
    203  N         15.0560   -5.8240   28.2620 N.am  232  TYR232     -0.1974
    204  CA        15.3310   -4.6550   27.4460 C.3   232  TYR232      0.1639
    205  C         16.6250   -3.9520   27.8120 C.2   232  TYR232      0.2290
    206  O         17.0040   -3.9040   28.9820 O.2   232  TYR232     -0.2864
    207  CB        14.1710   -3.6670   27.5920 C.3   232  TYR232      0.0560
    208  CG        12.8260   -4.2650   27.2590 C.ar  232  TYR232     -0.0198
    209  CD1       12.1600   -5.1020   28.1600 C.ar  232  TYR232     -0.0009
    210  CD2       12.2420   -4.0440   26.0100 C.ar  232  TYR232     -0.0009
    211  CE1       10.9540   -5.7080   27.8170 C.ar  232  TYR232      0.0417
    212  CE2       11.0480   -4.6410   25.6650 C.ar  232  TYR232      0.0417
    213  CZ        10.4100   -5.4720   26.5610 C.ar  232  TYR232      0.1957
    214  OH         9.2470   -6.0930   26.1800 O.3   232  TYR232     -0.2866
@<TRIPOS>BOND
     1    38    39    1
     2    38    37    1
     3    38    41    1
     4    39    40    2
     5    26    25    2
     6    42    41    1
     7    42    43    1
     8    44    43    1
     9    44    45    1
    10    25    24    1
    11    24    27    1
    12    24    23    1
    13    27    28    1
    14   131   129   ar
    15    14    13    2
    16    11    12    1
    17   126   125    2
    18    28    30   ar
    19    28    29   ar
    20    13    12    1
    21   125   124    1
    22    33    30   ar
    23    33    35   ar
    24     4     3    2
    25   127   124    1
    26   127   128    1
    27    30    32   ar
    28    29    31   ar
    29   129   130   ar
    30   129   128    1
    31    12    15    1
    32   135   134    2
    33    15    16    1
    34     3     2    1
    35    35    36   ar
    36   124   123    1
    37    32    31   ar
    38    32    34   ar
    39    18    16   ar
    40    18    20   ar
    41   134   133    1
    42   132   133    1
    43    16    17   ar
    44    36    34   ar
    45   136   133    1
    46   136   137    1
    47     2     1    1
    48     2     5    1
    49   123   119   am
    50     8    10   ar
    51     8     6   ar
    52   120   119    2
    53   119   118    1
    54    20    21   ar
    55    10     9   ar
    56     5     6    1
    57   122   121    1
    58     6     7   ar
    59    17    19   ar
    60   121   118    1
    61    57    59   ar
    62    57    55   ar
    63    59    58   ar
    64    55    54   ar
    65    55    53   ar
    66   118   117    1
    67    58    56   ar
    68     9     7   ar
    69    54    52   ar
    70    21    19   ar
    71    21    22    1
    72    53    56   ar
    73    53    51   ar
    74    52    51   ar
    75   117   114   am
    76    51    50    1
    77    70    68    1
    78    50    47    1
    79   187   186    1
    80   141   140    2
    81   142   143    1
    82   142   144    1
    83   142   139    1
    84   114   113    1
    85   114   115    2
    86    68    69    1
    87    68    67    2
    88   113   116    1
    89   113   112    1
    90   148   147    2
    91   186   183    1
    92    47    48    1
    93    47    46    1
    94    67    66    1
    95   140   139    1
    96   140   145   am
    97   138   139    1
    98    49    48    2
    99    95    93    1
   100   107   106    2
   101    48    60   am
   102    94    93    1
   103    65    66    1
   104    65    64    1
   105   147   146    1
   106   147   151   am
   107   146   145    1
   108   146   149    1
   109   112   106   am
   110    60    61    1
   111   106   105    1
   112    93    92    1
   113   183   182    1
   114   183   184    1
   115   182   180   am
   116    61    64    1
   117    61    62    1
   118   180   181    2
   119   180   179    1
   120   179   178    1
   121   185   184    2
   122   152   151    1
   123   152   155    1
   124   152   153    1
   125   150   149    1
   126    92    89    1
   127   155   156    1
   128   178   171   am
   129   168   167    2
   130   105   104    1
   131   105   108    1
   132    62    63    2
   133    62    71   am
   134    89    88    1
   135    89    90    1
   136   165   153   am
   137   165   166    1
   138   153   154    2
   139   108   109    1
   140   212   210   ar
   141   212   213   ar
   142   109   111   ar
   143   109   110   ar
   144   167   166    1
   145   167   169   am
   146    91    90    2
   147   210   208   ar
   148    88    82   am
   149    71    72    1
   150   214   213    1
   151   171   170    1
   152   171   172    2
   153   156   157   ar
   154   156   158   ar
   155   195   194    2
   156   213   211   ar
   157   170   169    1
   158   170   173    1
   159   157   159   ar
   160    82    83    2
   161    82    81    1
   162   208   207    1
   163   208   209   ar
   164    72    73    1
   165    72    75    1
   166   204   207    1
   167   204   205    1
   168   204   203    1
   169   158   161   ar
   170   158   160   ar
   171    73    74    2
   172    73    80   am
   173    80    81    1
   174   194   203   am
   175   194   193    1
   176   161   163   ar
   177   205   206    2
   178   211   209   ar
   179   173   174    1
   180   159   160   ar
   181    81    84    1
   182   192   193    1
   183   192   190   am
   184   189   190    1
   185   189   188    1
   186   174   175    1
   187   160   162   ar
   188    75    76    1
   189   193   196    1
   190   190   191    2
   191   196   197    1
   192   163   164   ar
   193    86    85    2
   194    84    85    1
   195   103   101    1
   196   162   164   ar
   197   175   176   ar
   198   175   177   ar
   199    76    77    1
   200    85    87   am
   201   197   198   ar
   202   197   199   ar
   203   101   100    1
   204   198   200   ar
   205   102   100    1
   206    78    77   ar
   207    77    79   ar
   208   100    97    1
   209   199   201   ar
   210   200   202   ar
   211    97    96    1
   212    97    98    1
   213   201   202   ar
   214    98    99    2
