@<TRIPOS>MOLECULE
tmp/1mudA00.pdb
 120 110 0 0 0
SMALL
GASTEIGER

@<TRIPOS>ATOM
      1  N        -15.0060  -11.0000   21.0380 N.3    19  ARG19      -0.1245
      2  CA       -15.7530  -11.6120   22.1290 C.3    19  ARG19       0.1563
      3  C        -16.0840  -13.0470   21.7240 C.2    19  ARG19       0.2260
      4  O        -16.7830  -13.2650   20.7270 O.2    19  ARG19      -0.2867
      5  CB       -17.0600  -10.9100   22.3640 C.3    19  ARG19       0.0307
      6  CG       -17.0690   -9.6040   23.0990 C.3    19  ARG19       0.0489
      7  CD       -18.4370   -9.0690   22.7040 C.3    19  ARG19       0.2205
      8  NE       -18.9950   -8.1880   23.7000 N.pl3  19  ARG19      -0.0865
      9  CZ       -20.0000   -7.3600   23.4270 C.cat  19  ARG19       0.5346
     10  NH1      -20.5190   -7.2720   22.2080 N.pl3  19  ARG19       0.1354
     11  NH2      -20.4780   -6.5960   24.4010 N.pl3  19  ARG19       0.1354
     12  N        -19.1340  -15.2640   25.5470 N.3    22  LEU22      -0.1245
     13  CA       -20.4950  -14.9680   25.9990 C.3    22  LEU22       0.1561
     14  C        -21.3030  -16.2590   26.0050 C.2    22  LEU22       0.2260
     15  O        -20.9610  -17.1420   25.2120 O.2    22  LEU22      -0.2867
     16  CB       -21.1280  -13.9230   25.0620 C.3    22  LEU22       0.0270
     17  CG       -20.5580  -12.5120   25.1570 C.3    22  LEU22       0.0019
     18  CD1      -20.9260  -11.7310   23.9160 C.3    22  LEU22       0.0001
     19  CD2      -21.0450  -11.8640   26.4420 C.3    22  LEU22       0.0001
     20  N        -24.1130  -17.4580   24.8050 N.3    24  TRP24      -0.1241
     21  CA       -24.6730  -17.8920   23.5310 C.3    24  TRP24       0.1605
     22  C        -23.6480  -18.2900   22.4710 C.2    24  TRP24       0.2264
     23  O        -24.0180  -18.7670   21.3990 O.2    24  TRP24      -0.2867
     24  CB       -25.5710  -16.7980   22.9720 C.3    24  TRP24       0.0550
     25  CG       -25.0140  -15.3710   23.0130 C.ar   24  TRP24       0.0003
     26  CD1      -24.2690  -14.8340   22.0000 C.ar   24  TRP24       0.0946
     27  CD2      -25.2380  -14.4720   24.0130 C.ar   24  TRP24       0.0152
     28  NE1      -24.0270  -13.5900   22.3450 N.ar   24  TRP24      -0.2442
     29  CE2      -24.5850  -13.3380   23.5300 C.ar   24  TRP24       0.0810
     30  CE3      -25.9380  -14.4460   25.2210 C.ar   24  TRP24       0.0012
     31  CZ2      -24.6210  -12.1470   24.2450 C.ar   24  TRP24       0.0191
     32  CZ3      -25.9760  -13.2560   25.9420 C.ar   24  TRP24       0.0001
     33  CH2      -25.3230  -12.1180   25.4540 C.ar   24  TRP24       0.0015
     34  N        -30.1080  -13.7440   19.7270 N.3    37  GLU37      -0.1245
     35  CA       -30.3240  -12.7330   18.6990 C.3    37  GLU37       0.1567
     36  C        -31.5780  -11.9120   18.8870 C.2    37  GLU37       0.2260
     37  O        -31.5420  -10.6930   18.7270 O.2    37  GLU37      -0.2867
     38  CB       -30.3730  -13.3800   17.3180 C.3    37  GLU37       0.0388
     39  CG       -28.9780  -13.8610   16.8800 C.3    37  GLU37       0.1160
     40  CD       -27.8790  -12.7900   16.8470 C.2    37  GLU37       0.3649
     41  OE1      -28.1150  -11.6930   16.3440 O.co2  37  GLU37      -0.2457
     42  OE2      -26.7760  -13.0550   17.3090 O.co2  37  GLU37      -0.2457
     43  N        -31.0000   -9.7110   21.9900 N.3    40  LEU40      -0.1231
     44  CA       -29.9970   -8.7230   21.6380 C.3    40  LEU40       0.1693
     45  C        -30.3860   -7.6950   20.6060 C.2    40  LEU40       0.2591
     46  O        -29.6660   -6.7050   20.4930 O.2    40  LEU40      -0.2718
     47  CB       -28.7300   -9.4200   21.1380 C.3    40  LEU40       0.0284
     48  CG       -27.8760  -10.1240   22.1840 C.3    40  LEU40       0.0019
     49  CD1      -26.8930  -11.0430   21.4850 C.3    40  LEU40       0.0001
     50  CD2      -27.1770   -9.0960   23.0550 C.3    40  LEU40       0.0001
     51  N        -31.4680   -7.8400   19.8330 N.am   41  GLN41      -0.1979
     52  CA       -31.6870   -6.8320   18.8080 C.3    41  GLN41       0.1601
     53  C        -32.1420   -5.4770   19.3160 C.2    41  GLN41       0.2287
     54  O        -31.8820   -4.4610   18.6670 O.2    41  GLN41      -0.2864
     55  CB       -32.6580   -7.3700   17.7620 C.3    41  GLN41       0.0394
     56  CG       -34.0040   -7.8290   18.2090 C.3    41  GLN41       0.0908
     57  CD       -34.7080   -8.7210   17.1900 C.2    41  GLN41       0.2608
     58  OE1      -35.9010   -8.9490   17.3330 O.2    41  GLN41      -0.2717
     59  NE2      -34.0470   -9.2840   16.1780 N.am   41  GLN41      -0.0878
     60  N        -25.8040   -6.2210   25.4810 N.3    45  VAL45      -0.1245
     61  CA       -25.2690   -7.4770   26.0130 C.3    45  VAL45       0.1561
     62  C        -25.2940   -7.6000   27.5420 C.2    45  VAL45       0.2260
     63  O        -25.7340   -8.6310   28.0550 O.2    45  VAL45      -0.2867
     64  CB       -23.8140   -7.6500   25.4740 C.3    45  VAL45       0.0252
     65  CG1      -23.1060   -8.8170   26.1370 C.3    45  VAL45       0.0019
     66  CG2      -23.8560   -7.9680   23.9830 C.3    45  VAL45       0.0019
     67  N        -23.8890  -18.4650   12.5570 N.3   128  LEU128     -0.1245
     68  CA       -23.2370  -18.5890   13.8520 C.3   128  LEU128      0.1561
     69  C        -23.3530  -19.9580   14.5130 C.2   128  LEU128      0.2260
     70  O        -22.3740  -20.4110   15.1150 O.2   128  LEU128     -0.2867
     71  CB       -23.7830  -17.5480   14.8250 C.3   128  LEU128      0.0270
     72  CG       -23.6310  -16.0710   14.4740 C.3   128  LEU128      0.0019
     73  CD1      -24.1970  -15.2410   15.6330 C.3   128  LEU128      0.0001
     74  CD2      -22.1750  -15.7350   14.2170 C.3   128  LEU128      0.0001
     75  N        -27.4590   -6.1060   10.3500 N.3   138  ASN138     -0.1240
     76  CA       -28.2500   -5.3770   11.3340 C.3   138  ASN138      0.1653
     77  C        -27.7330   -3.9370   11.3550 C.2   138  ASN138      0.2266
     78  O        -26.8590   -3.6040   10.5520 O.2   138  ASN138     -0.2867
     79  CB       -28.1280   -6.0460   12.7250 C.3   138  ASN138      0.1155
     80  CG       -26.7830   -6.0770   13.4540 C.2   138  ASN138      0.2627
     81  OD1      -26.6690   -6.6530   14.5400 O.2   138  ASN138     -0.2716
     82  ND2      -25.7230   -5.4680   12.9500 N.am  138  ASN138     -0.0877
     83  N        -25.7050   -2.2160   13.3230 N.3   140  ASN140     -0.1240
     84  CA       -24.2750   -2.1330   13.5850 C.3   140  ASN140      0.1653
     85  C        -23.3910   -2.5160   12.4100 C.2   140  ASN140      0.2266
     86  O        -22.3940   -1.8390   12.1350 O.2   140  ASN140     -0.2867
     87  CB       -23.9440   -3.0130   14.7780 C.3   140  ASN140      0.1155
     88  CG       -24.4500   -2.4570   16.1010 C.2   140  ASN140      0.2627
     89  OD1      -24.5640   -3.1920   17.0770 O.2   140  ASN140     -0.2716
     90  ND2      -24.7920   -1.1740   16.2000 N.am  140  ASN140     -0.0877
     91  N        -19.8290  -12.7660   13.8310 N.3   182  GLN182     -0.1245
     92  CA       -19.7330  -12.3210   15.2140 C.3   182  GLN182      0.1566
     93  C        -18.7890  -11.1190   15.2850 C.2   182  GLN182      0.2260
     94  O        -19.1190  -10.1360   15.9510 O.2   182  GLN182     -0.2867
     95  CB       -19.1920  -13.4400   16.1110 C.3   182  GLN182      0.0367
     96  CG       -19.1490  -13.0510   17.5930 C.3   182  GLN182      0.0905
     97  CD       -20.5030  -12.5960   18.1410 C.2   182  GLN182      0.2608
     98  OE1      -21.4730  -13.3510   18.1840 O.2   182  GLN182     -0.2717
     99  NE2      -20.6130  -11.3400   18.5680 N.am  182  GLN182     -0.0878
    100  N        -20.5660   -7.8860   14.0570 N.3   185  MET185     -0.1230
    101  CA       -21.4380   -7.4100   15.1200 C.3   185  MET185      0.1702
    102  C        -20.6730   -6.7770   16.2780 C.2   185  MET185      0.2592
    103  O        -21.0590   -5.6960   16.7240 O.2   185  MET185     -0.2718
    104  CB       -22.2890   -8.5400   15.6660 C.3   185  MET185      0.0401
    105  CG       -23.3510   -8.7510   14.6140 C.3   185  MET185      0.0596
    106  SD       -24.6690   -9.8510   15.1590 S.3   185  MET185     -0.1393
    107  CE       -23.7440  -11.3550   15.3330 C.3   185  MET185      0.0692
    108  N        -19.5730   -7.3970   16.7330 N.am  186  ASP186     -0.1974
    109  CA       -18.6880   -6.8360   17.7510 C.3   186  ASP186      0.1709
    110  C        -18.0960   -5.4810   17.3690 C.2   186  ASP186      0.2293
    111  O        -18.0760   -4.5710   18.1970 O.2   186  ASP186     -0.2864
    112  CB       -17.4970   -7.7260   18.0290 C.3   186  ASP186      0.1436
    113  CG       -17.7020   -9.0000   18.8260 C.2   186  ASP186      0.3671
    114  OD1      -18.7820   -9.1920   19.3890 O.co2 186  ASP186     -0.2456
    115  OD2      -16.7410   -9.7800   18.8800 O.co2 186  ASP186     -0.2456
    116  N        -20.8800   -2.8340   17.3570 N.3   189  ALA189     -0.1245
    117  CA       -21.3080   -2.5830   18.7130 C.3   189  ALA189      0.1562
    118  C        -20.2650   -1.8540   19.5470 C.2   189  ALA189      0.2260
    119  O        -20.6270   -0.9270   20.2670 O.2   189  ALA189     -0.2867
    120  CB       -21.6420   -3.8980   19.4120 C.3   189  ALA189      0.0290
@<TRIPOS>BOND
     1    75    76    1
     2    78    77    2
     3    76    77    1
     4    76    79    1
     5    86    85    2
     6    85    84    1
     7    67    68    1
     8    79    80    1
     9    82    80   am
    10    83    84    1
    11    80    81    2
    12    84    87    1
    13    91    92    1
    14    68    69    1
    15    68    71    1
    16   100   101    1
    17    74    72    1
    18    72    71    1
    19    72    73    1
    20    69    70    2
    21   105   106    1
    22   105   104    1
    23    87    88    1
    24   101   104    1
    25   101   102    1
    26   106   107    1
    27    92    93    1
    28    92    95    1
    29    93    94    2
    30    88    90   am
    31    88    89    2
    32    95    96    1
    33    59    57   am
    34   102   103    2
    35   102   108   am
    36    41    40   ar
    37   108   109    1
    38    40    39    1
    39    40    42   ar
    40    39    38    1
    41    57    58    2
    42    57    56    1
    43    38    35    1
    44   116   117    1
    45   110   109    1
    46   110   111    2
    47    96    97    1
    48   109   112    1
    49    55    56    1
    50    55    52    1
    51   112   113    1
    52    97    98    2
    53    97    99   am
    54    54    53    2
    55    35    36    1
    56    35    34    1
    57   117   120    1
    58   117   118    1
    59    37    36    2
    60    52    53    1
    61    52    51    1
    62   113   115   ar
    63   113   114   ar
    64   118   119    2
    65    51    45   am
    66    46    45    2
    67    45    44    1
    68     4     3    2
    69     1     2    1
    70    47    44    1
    71    47    48    1
    72    23    22    2
    73    49    48    1
    74    44    43    1
    75     3     2    1
    76    26    28   ar
    77    26    25   ar
    78     2     5    1
    79    48    50    1
    80    10     9    1
    81    28    29   ar
    82     5     6    1
    83    22    21    1
    84     7     6    1
    85     7     8    1
    86    24    25    1
    87    24    21    1
    88    25    27   ar
    89     9     8    2
    90     9    11    1
    91    29    27   ar
    92    29    31   ar
    93    21    20    1
    94    18    17    1
    95    66    64    1
    96    27    30   ar
    97    31    33   ar
    98    16    17    1
    99    16    13    1
   100    17    19    1
   101    15    14    2
   102    30    32   ar
   103    33    32   ar
   104    64    61    1
   105    64    65    1
   106    60    61    1
   107    12    13    1
   108    13    14    1
   109    61    62    1
   110    62    63    2
