@<TRIPOS>MOLECULE
tmp/1mueB01.pdb
 203 203 0 0 0
SMALL
GASTEIGER

@<TRIPOS>ATOM
      1  N         22.5350   -7.0300   18.4740 N.3    43  HIS43      -0.1241
      2  CA        22.3970   -8.4110   18.0140 C.3    43  HIS43       0.1621
      3  C         21.6410   -8.5460   16.6940 C.2    43  HIS43       0.2264
      4  O         21.5980   -9.6190   16.0980 O.2    43  HIS43      -0.2867
      5  CB        21.7840   -9.3060   19.0940 C.3    43  HIS43       0.0745
      6  CG        20.2980   -9.2250   19.1990 C.ar   43  HIS43       0.0817
      7  ND1       19.6640   -8.4280   20.1240 N.ar   43  HIS43      -0.2268
      8  CD2       19.3160   -9.8880   18.5420 C.ar   43  HIS43       0.1154
      9  CE1       18.3570   -8.6050   20.0430 C.ar   43  HIS43       0.1986
     10  NE2       18.1200   -9.4850   19.0880 N.ar   43  HIS43      -0.2212
     11  N         25.8890  -11.1560   15.5100 N.3    47  TYR47      -0.1241
     12  CA        25.6470  -12.2590   16.4230 C.3    47  TYR47       0.1605
     13  C         26.3480  -13.5020   15.8750 C.2    47  TYR47       0.2264
     14  O         25.7200  -14.3900   15.2960 O.2    47  TYR47      -0.2867
     15  CB        24.1650  -12.5150   16.6170 C.3    47  TYR47       0.0534
     16  CG        23.9050  -13.3900   17.8050 C.ar   47  TYR47      -0.0201
     17  CD1       24.3520  -13.0090   19.0720 C.ar   47  TYR47      -0.0009
     18  CD2       23.2530  -14.6150   17.6710 C.ar   47  TYR47      -0.0009
     19  CE1       24.1620  -13.8270   20.1850 C.ar   47  TYR47       0.0417
     20  CE2       23.0550  -15.4420   18.7780 C.ar   47  TYR47       0.0417
     21  CZ        23.5200  -15.0360   20.0350 C.ar   47  TYR47       0.1957
     22  OH        23.3650  -15.8410   21.1380 O.3    47  TYR47      -0.2866
     23  N         25.2490  -17.3110   15.3440 N.3    50  TRP50      -0.1241
     24  CA        24.3790  -17.6510   14.2190 C.3    50  TRP50       0.1605
     25  C         24.9880  -17.0800   12.9520 C.2    50  TRP50       0.2264
     26  O         24.2860  -16.8130   11.9810 O.2    50  TRP50      -0.2867
     27  CB        22.9690  -17.0810   14.4140 C.3    50  TRP50       0.0550
     28  CG        22.2700  -17.5660   15.6480 C.ar   50  TRP50       0.0003
     29  CD1       22.6340  -18.6180   16.4440 C.ar   50  TRP50       0.0946
     30  CD2       21.1000  -16.9970   16.2460 C.ar   50  TRP50       0.0152
     31  NE1       21.7670  -18.7340   17.5020 N.ar   50  TRP50      -0.2442
     32  CE2       20.8130  -17.7540   17.4060 C.ar   50  TRP50       0.0810
     33  CE3       20.2640  -15.9210   15.9140 C.ar   50  TRP50       0.0012
     34  CZ2       19.7240  -17.4660   18.2440 C.ar   50  TRP50       0.0191
     35  CZ3       19.1780  -15.6340   16.7500 C.ar   50  TRP50       0.0001
     36  CH2       18.9210  -16.4080   17.9000 C.ar   50  TRP50       0.0015
     37  N         25.7780  -14.2710   12.1640 N.3    52  LYS52      -0.1245
     38  CA        25.1740  -13.0320   11.7060 C.3    52  LYS52       0.1561
     39  C         26.1310  -11.8560   11.8610 C.2    52  LYS52       0.2260
     40  O         26.6580  -11.6130   12.9380 O.2    52  LYS52      -0.2867
     41  CB        23.8740  -12.7440   12.4490 C.3    52  LYS52       0.0271
     42  CG        23.1850  -11.5000   11.9300 C.3    52  LYS52       0.0035
     43  CD        22.1870  -10.9460   12.9050 C.3    52  LYS52       0.0206
     44  CE        21.0750  -11.9220   13.1720 C.3    52  LYS52       0.1093
     45  NZ        20.1070  -11.3270   14.1190 N.3    52  LYS52      -0.1314
     46  N         28.1420  -10.3470   23.2340 N.3    92  TRP92      -0.1241
     47  CA        27.4050  -11.3960   22.5190 C.3    92  TRP92       0.1605
     48  C         27.7840  -12.7950   22.9670 C.2    92  TRP92       0.2264
     49  O         27.0400  -13.7390   22.7350 O.2    92  TRP92      -0.2867
     50  CB        27.5960  -11.2890   21.0020 C.3    92  TRP92       0.0550
     51  CG        29.0130  -11.2550   20.5650 C.ar   92  TRP92       0.0003
     52  CD1       29.7730  -10.1400   20.3490 C.ar   92  TRP92       0.0946
     53  CD2       29.8600  -12.3860   20.2800 C.ar   92  TRP92       0.0152
     54  NE1       31.0410  -10.5020   19.9480 N.ar   92  TRP92      -0.2442
     55  CE2       31.1260  -11.8730   19.8980 C.ar   92  TRP92       0.0810
     56  CE3       29.6760  -13.7830   20.3120 C.ar   92  TRP92       0.0012
     57  CZ2       32.2080  -12.7070   19.5460 C.ar   92  TRP92       0.0191
     58  CZ3       30.7570  -14.6130   19.9610 C.ar   92  TRP92       0.0001
     59  CH2       32.0010  -14.0670   19.5860 C.ar   92  TRP92       0.0015
     60  N         28.1090  -13.9140   26.1140 N.3    94  GLU94      -0.1231
     61  CA        27.4210  -14.3910   27.2850 C.3    94  GLU94       0.1699
     62  C         25.9600  -14.0280   27.5260 C.2    94  GLU94       0.2592
     63  O         25.1090  -14.9150   27.6070 O.2    94  GLU94      -0.2718
     64  CB        28.2430  -14.0190   28.5180 C.3    94  GLU94       0.0402
     65  CG        27.6710  -14.5380   29.8110 C.3    94  GLU94       0.1161
     66  CD        28.1900  -13.7860   31.0140 C.2    94  GLU94       0.3649
     67  OE1       29.1300  -12.9610   30.8550 O.co2  94  GLU94      -0.2457
     68  OE2       27.6380  -13.9990   32.1210 O.co2  94  GLU94      -0.2457
     69  N         25.6600  -12.7390   27.6750 N.am   95  ASN95      -0.1960
     70  CA        24.2900  -12.3440   28.0050 C.3    95  ASN95       0.1819
     71  C         23.6690  -11.1720   27.2290 C.2    95  ASN95       0.2621
     72  O         22.6150  -10.6700   27.6160 O.2    95  ASN95      -0.2715
     73  CB        24.2360  -12.0300   29.5030 C.3    95  ASN95       0.1195
     74  CG        25.2710  -10.9940   29.9050 C.2    95  ASN95       0.2630
     75  OD1       26.0660  -10.5230   29.0870 O.2    95  ASN95      -0.2716
     76  ND2       25.2780  -10.6480   31.1750 N.am   95  ASN95      -0.0877
     77  N         24.3040  -10.7640   26.1350 N.am   96  LEU96      -0.1977
     78  CA        23.8210   -9.6400   25.3290 C.3    96  LEU96       0.1596
     79  C         23.8470   -8.3400   26.1290 C.2    96  LEU96       0.2287
     80  O         22.9460   -7.5160   26.0270 O.2    96  LEU96      -0.2864
     81  CB        22.4050   -9.8910   24.7730 C.3    96  LEU96       0.0297
     82  CG        22.2400  -11.0090   23.7360 C.3    96  LEU96       0.0022
     83  CD1       20.8350  -10.9470   23.1080 C.3    96  LEU96       0.0001
     84  CD2       23.3200  -10.9000   22.6670 C.3    96  LEU96       0.0001
     85  N         20.3160  -16.8220   33.1360 N.3   171  ILE171     -0.1245
     86  CA        21.2070  -15.8320   32.5330 C.3   171  ILE171      0.1561
     87  C         21.6080  -14.7440   33.5250 C.2   171  ILE171      0.2260
     88  O         20.7980  -14.3050   34.3310 O.2   171  ILE171     -0.2867
     89  CB        20.5370  -15.1580   31.2900 C.3   171  ILE171      0.0252
     90  CG1       20.0700  -16.2260   30.2860 C.3   171  ILE171      0.0019
     91  CG2       21.5200  -14.1940   30.6070 C.3   171  ILE171      0.0019
     92  CD1       21.1980  -16.9600   29.5940 C.3   171  ILE171      0.0001
     93  N          3.9410   -9.8400   25.1740 N.3   191  ASP191     -0.1225
     94  CA         5.3980   -9.8670   25.1590 C.3   191  ASP191      0.1805
     95  C          5.8570   -9.5870   23.7340 C.2   191  ASP191      0.2598
     96  O          5.0470   -9.4900   22.8140 O.2   191  ASP191     -0.2718
     97  CB         5.8540  -11.2840   25.5790 C.3   191  ASP191      0.1424
     98  CG         7.3540  -11.4040   25.8300 C.2   191  ASP191      0.3668
     99  OD1        7.8350  -12.5560   25.9240 O.co2 191  ASP191     -0.2456
    100  OD2        8.0700  -10.3920   25.9630 O.co2 191  ASP191     -0.2456
    101  N          7.1510   -9.3510   23.5750 N.am  192  ALA192     -0.1966
    102  CA         7.7310   -9.1390   22.2750 C.3   192  ALA192      0.1728
    103  C          8.0290  -10.5630   21.8100 C.2   192  ALA192      0.2616
    104  O          7.8990  -11.4990   22.5850 O.2   192  ALA192     -0.2715
    105  CB         9.0250   -8.3440   22.4020 C.3   192  ALA192      0.0334
    106  N          8.4320  -10.7320   20.5610 N.am  193  CYS193     -0.1954
    107  CA         8.7400  -12.0640   20.0540 C.3   193  CYS193      0.1843
    108  C          9.6820  -11.9010   18.8800 C.2   193  CYS193      0.2625
    109  O         10.1360  -10.7920   18.6040 O.2   193  CYS193     -0.2714
    110  CB         7.4590  -12.8000   19.6260 C.3   193  CYS193      0.0997
    111  SG         7.6090  -14.6270   19.5220 S.3   193  CYS193     -0.0797
    112  N          9.9900  -13.0000   18.1990 N.am  194  GLU194     -0.1977
    113  CA        10.8960  -12.9490   17.0570 C.3   194  GLU194      0.1602
    114  C         10.4590  -11.8780   16.0570 C.2   194  GLU194      0.2287
    115  O          9.2990  -11.8290   15.6700 O.2   194  GLU194     -0.2864
    116  CB        10.9590  -14.3170   16.3740 C.3   194  GLU194      0.0415
    117  CG        12.3620  -14.7230   15.9400 C.3   194  GLU194      0.1163
    118  CD        12.9560  -13.8070   14.8680 C.2   194  GLU194      0.3649
    119  OE1       12.9520  -14.1740   13.6320 O.co2 194  GLU194     -0.2457
    120  OE2       13.4600  -12.6670   15.2010 O.co2 194  GLU194     -0.2457
    121  N         12.8550   -7.5820   18.0020 N.3   197  SER197     -0.1217
    122  CA        14.1620   -7.1240   18.4860 C.3   197  SER197      0.1889
    123  C         14.5510   -5.7920   17.8890 C.2   197  SER197      0.2288
    124  O         14.3280   -5.5710   16.7150 O.2   197  SER197     -0.2866
    125  CB        15.2620   -8.1220   18.0950 C.3   197  SER197      0.2089
    126  OG        15.1030   -9.3510   18.7760 O.3   197  SER197     -0.2183
    127  N         14.1360   -3.5380   22.7550 N.3   217  VAL217     -0.1231
    128  CA        13.7810   -4.9620   22.8580 C.3   217  VAL217      0.1692
    129  C         15.0760   -5.7600   22.6570 C.2   217  VAL217      0.2593
    130  O         15.6910   -5.7120   21.5920 O.2   217  VAL217     -0.2718
    131  CB        12.7400   -5.3650   21.7610 C.3   217  VAL217      0.0266
    132  CG1       12.3510   -6.8600   21.9120 C.3   217  VAL217      0.0020
    133  CG2       11.4880   -4.4600   21.8240 C.3   217  VAL217      0.0020
    134  N         15.4940   -6.5070   23.6710 N.am  218  SER218     -0.1938
    135  CA        16.7470   -7.2240   23.5450 C.3   218  SER218      0.2055
    136  C         16.6680   -8.7470   23.4610 C.2   218  SER218      0.2643
    137  O         17.0700   -9.3240   22.4550 O.2   218  SER218     -0.2714
    138  CB        17.7060   -6.7930   24.6710 C.3   218  SER218      0.2130
    139  OG        18.9740   -7.4000   24.5430 O.3   218  SER218     -0.2179
    140  N         16.1590   -9.4010   24.4990 N.am  219  TRP219     -0.1959
    141  CA        16.0940  -10.8510   24.4770 C.3   219  TRP219      0.1771
    142  C         15.0650  -11.4140   25.4260 C.2   219  TRP219      0.2620
    143  O         14.4960  -10.7160   26.2570 O.2   219  TRP219     -0.2715
    144  CB        17.4850  -11.4600   24.7810 C.3   219  TRP219      0.0590
    145  CG        18.0400  -11.1310   26.1660 C.ar  219  TRP219      0.0006
    146  CD1       18.7900  -10.0350   26.5210 C.ar  219  TRP219      0.0946
    147  CD2       17.8430  -11.8860   27.3760 C.ar  219  TRP219      0.0152
    148  NE1       19.0600  -10.0600   27.8760 N.ar  219  TRP219     -0.2442
    149  CE2       18.4910  -11.1830   28.4230 C.ar  219  TRP219      0.0810
    150  CE3       17.1750  -13.0870   27.6770 C.ar  219  TRP219      0.0012
    151  CZ2       18.4890  -11.6450   29.7490 C.ar  219  TRP219      0.0191
    152  CZ3       17.1710  -13.5430   28.9890 C.ar  219  TRP219      0.0001
    153  CH2       17.8250  -12.8210   30.0100 C.ar  219  TRP219      0.0015
    154  N         14.7520  -12.6810   25.2190 N.am  220  GLY220     -0.1940
    155  CA        13.8030  -13.3430   26.0790 C.3   220  GLY220      0.2014
    156  C         13.9740  -14.8210   25.8230 C.2   220  GLY220      0.2639
    157  O         14.7820  -15.2140   24.9880 O.2   220  GLY220     -0.2714
    158  N         13.3190  -15.6240   26.6410 N.am  221  GLU221     -0.1963
    159  CA        13.3540  -17.0710   26.5070 C.3   221  GLU221      0.1733
    160  C         11.9230  -17.4850   26.1570 C.2   221  GLU221      0.2617
    161  O         11.0510  -17.6010   27.0160 O.2   221  GLU221     -0.2715
    162  CB        13.8380  -17.6760   27.8170 C.3   221  GLU221      0.0429
    163  CG        15.2190  -17.1460   28.1880 C.3   221  GLU221      0.1163
    164  CD        15.6010  -17.4370   29.6180 C.2   221  GLU221      0.3649
    165  OE1       16.5130  -18.2560   29.8240 O.co2 221  GLU221     -0.2457
    166  OE2       14.9940  -16.8540   30.5400 O.co2 221  GLU221     -0.2457
    167  N         11.6720  -17.5890   24.8560 N.am  222  GLY222     -0.1940
    168  CA        10.3390  -17.9130   24.3860 C.3   222  GLY222      0.2014
    169  C          9.5920  -16.5940   24.2250 C.2   222  GLY222      0.2639
    170  O         10.2100  -15.5270   24.2790 O.2   222  GLY222     -0.2714
    171  N          8.2740  -16.6550   24.0770 N.am  223  CYS223     -0.1967
    172  CA         7.4630  -15.4500   23.9170 C.3   223  CYS223      0.1712
    173  C          6.2070  -15.6300   24.7350 C.2   223  CYS223      0.2296
    174  O          5.4980  -16.6180   24.5890 O.2   223  CYS223     -0.2864
    175  CB         7.0650  -15.2300   22.4540 C.3   223  CYS223      0.0983
    176  SG         8.4610  -15.1370   21.3040 S.3   223  CYS223     -0.0798
    177  N         10.4220  -10.3230   29.2730 N.3   230  GLY230     -0.1210
    178  CA        11.2780   -9.8450   28.2120 C.3   230  GLY230      0.1956
    179  C         12.3310   -8.9360   28.8170 C.2   230  GLY230      0.2612
    180  O         12.0810   -8.2900   29.8340 O.2   230  GLY230     -0.2717
    181  N         13.5170   -8.9310   28.2200 N.am  231  PHE231     -0.1962
    182  CA        14.6080   -8.0910   28.6880 C.3   231  PHE231      0.1771
    183  C         14.9070   -7.0150   27.6800 C.2   231  PHE231      0.2619
    184  O         14.9460   -7.2660   26.4740 O.2   231  PHE231     -0.2715
    185  CB        15.8470   -8.9230   29.0030 C.3   231  PHE231      0.0574
    186  CG        15.7090   -9.7030   30.2770 C.ar  231  PHE231     -0.0200
    187  CD1       14.9130  -10.8410   30.3250 C.ar  231  PHE231     -0.0042
    188  CD2       16.3040   -9.2450   31.4560 C.ar  231  PHE231     -0.0042
    189  CE1       14.6990  -11.5170   31.5360 C.ar  231  PHE231     -0.0003
    190  CE2       16.0990   -9.9080   32.6630 C.ar  231  PHE231     -0.0003
    191  CZ        15.2950  -11.0460   32.7070 C.ar  231  PHE231     -0.0000
    192  N         15.1800   -5.8260   28.2000 N.am  232  TYR232     -0.1974
    193  CA        15.4200   -4.6530   27.3790 C.3   232  TYR232      0.1639
    194  C         16.7070   -3.9540   27.7350 C.2   232  TYR232      0.2290
    195  O         17.0880   -3.9160   28.8970 O.2   232  TYR232     -0.2864
    196  CB        14.2520   -3.6570   27.5900 C.3   232  TYR232      0.0560
    197  CG        12.8930   -4.2220   27.2430 C.ar  232  TYR232     -0.0198
    198  CD1       12.1850   -5.0300   28.1440 C.ar  232  TYR232     -0.0009
    199  CD2       12.3390   -4.0170   25.9820 C.ar  232  TYR232     -0.0009
    200  CE1       10.9740   -5.6240   27.7820 C.ar  232  TYR232      0.0417
    201  CE2       11.1350   -4.6020   25.6230 C.ar  232  TYR232      0.0417
    202  CZ        10.4660   -5.4040   26.5120 C.ar  232  TYR232      0.1957
    203  OH         9.3150   -6.0330   26.1000 O.3   232  TYR232     -0.2866
@<TRIPOS>BOND
     1    38    39    1
     2    38    37    1
     3    38    41    1
     4    39    40    2
     5    42    41    1
     6    42    43    1
     7    26    25    2
     8    43    44    1
     9    25    24    1
    10    44    45    1
    11   119   118   ar
    12    24    27    1
    13    24    23    1
    14    27    28    1
    15   118   120   ar
    16   118   117    1
    17    14    13    2
    18    11    12    1
    19    28    30   ar
    20    28    29   ar
    21   115   114    2
    22    13    12    1
    23    33    30   ar
    24    33    35   ar
    25   117   116    1
    26   114   113    1
    27     4     3    2
    28    30    32   ar
    29   116   113    1
    30    12    15    1
    31    29    31   ar
    32    15    16    1
    33     3     2    1
    34   124   123    2
    35    35    36   ar
    36   113   112    1
    37    32    31   ar
    38    32    34   ar
    39    18    16   ar
    40    18    20   ar
    41    16    17   ar
    42   123   122    1
    43    36    34   ar
    44   121   122    1
    45     2     1    1
    46     2     5    1
    47   125   122    1
    48   125   126    1
    49   112   108   am
    50     8    10   ar
    51     8     6   ar
    52   109   108    2
    53    20    21   ar
    54   108   107    1
    55    17    19   ar
    56    10     9   ar
    57     5     6    1
    58     6     7   ar
    59   111   110    1
    60   111   176    1
    61    57    59   ar
    62    57    55   ar
    63    59    58   ar
    64   110   107    1
    65    55    54   ar
    66    55    53   ar
    67    54    52   ar
    68    58    56   ar
    69    21    19   ar
    70    21    22    1
    71     9     7   ar
    72   107   106    1
    73    53    56   ar
    74    53    51   ar
    75    52    51   ar
    76   106   103   am
    77    51    50    1
    78    50    47    1
    79   176   175    1
    80   130   129    2
    81   131   133    1
    82   131   132    1
    83   131   128    1
    84   103   102    1
    85   103   104    2
    86   102   105    1
    87   102   101    1
    88   175   172    1
    89   137   136    2
    90    47    48    1
    91    47    46    1
    92   129   128    1
    93   129   134   am
    94    84    82    1
    95    49    48    2
    96   127   128    1
    97    96    95    2
    98    83    82    1
    99   136   135    1
   100   136   140   am
   101   135   134    1
   102   135   138    1
   103   101    95   am
   104    95    94    1
   105    82    81    1
   106   172   171    1
   107   172   173    1
   108   171   169   am
   109   169   170    2
   110   169   168    1
   111   168   167    1
   112   141   140    1
   113   141   144    1
   114   141   142    1
   115   139   138    1
   116   174   173    2
   117    81    78    1
   118   144   145    1
   119   167   160   am
   120   157   156    2
   121    94    93    1
   122    94    97    1
   123   154   142   am
   124   154   155    1
   125    78    79    1
   126    78    77    1
   127   142   143    2
   128    97    98    1
   129   201   199   ar
   130   201   202   ar
   131   156   155    1
   132   156   158   am
   133    98    99   ar
   134    98   100   ar
   135   199   197   ar
   136    80    79    2
   137   203   202    1
   138    60    61    1
   139    77    71   am
   140   160   159    1
   141   160   161    2
   142   145   146   ar
   143   145   147   ar
   144   184   183    2
   145   159   158    1
   146   159   162    1
   147   202   200   ar
   148   146   148   ar
   149    71    72    2
   150    71    70    1
   151   197   196    1
   152   197   198   ar
   153    61    62    1
   154    61    64    1
   155   147   150   ar
   156   147   149   ar
   157   193   196    1
   158   193   194    1
   159   193   192    1
   160    62    63    2
   161    62    69   am
   162    69    70    1
   163   150   152   ar
   164   183   192   am
   165   183   182    1
   166   194   195    2
   167   200   198   ar
   168   162   163    1
   169   148   149   ar
   170    70    73    1
   171   163   164    1
   172   178   179    1
   173   178   177    1
   174   181   182    1
   175   181   179   am
   176   149   151   ar
   177    64    65    1
   178   182   185    1
   179   179   180    2
   180   152   153   ar
   181   185   186    1
   182    75    74    2
   183    73    74    1
   184    92    90    1
   185   164   165   ar
   186   164   166   ar
   187   151   153   ar
   188    65    66    1
   189    74    76   am
   190   186   187   ar
   191   186   188   ar
   192    90    89    1
   193   187   189   ar
   194    91    89    1
   195    67    66   ar
   196    66    68   ar
   197    89    86    1
   198   188   190   ar
   199   189   191   ar
   200    86    85    1
   201    86    87    1
   202   190   191   ar
   203    87    88    2
