@<TRIPOS>MOLECULE
tmp/1muqB00.pdb
 97 90 0 0 0
SMALL
GASTEIGER

@<TRIPOS>ATOM
      1  N         33.8220   46.3370   50.2860 N.3    92  ASP92      -0.1225
      2  CA        33.2750   47.5860   50.7890 C.3    92  ASP92       0.1805
      3  C         33.5520   47.6420   52.2880 C.2    92  ASP92       0.2598
      4  O         33.9870   46.6550   52.8800 O.2    92  ASP92      -0.2718
      5  CB        31.7700   47.6400   50.5250 C.3    92  ASP92       0.1424
      6  CG        31.1730   48.9950   50.8330 C.2    92  ASP92       0.3668
      7  OD1       31.9350   49.9160   51.1860 O.co2  92  ASP92      -0.2456
      8  OD2       29.9390   49.1390   50.7140 O.co2  92  ASP92      -0.2456
      9  N         33.3010   48.7960   52.8960 N.am   93  LYS93      -0.1966
     10  CA        33.5300   48.9890   54.3250 C.3    93  LYS93       0.1728
     11  C         32.8890   47.9020   55.1900 C.2    93  LYS93       0.2616
     12  O         31.6860   47.6510   55.1040 O.2    93  LYS93      -0.2715
     13  CB        33.0050   50.3640   54.7470 C.3    93  LYS93       0.0311
     14  CG        33.2670   50.7230   56.1970 C.3    93  LYS93       0.0038
     15  CD        32.7700   52.1320   56.5030 C.3    93  LYS93       0.0206
     16  CE        33.1120   52.5560   57.9260 C.3    93  LYS93       0.1093
     17  NZ        32.7000   53.9630   58.2020 N.3    93  LYS93      -0.1314
     18  N         33.7100   47.2620   56.0190 N.am   94  ASN94      -0.1958
     19  CA        33.2660   46.2040   56.9270 C.3    94  ASN94       0.1819
     20  C         32.8610   44.8990   56.2510 C.2    94  ASN94       0.2621
     21  O         32.2790   44.0190   56.8880 O.2    94  ASN94      -0.2715
     22  CB        32.1120   46.7070   57.7970 C.3    94  ASN94       0.1195
     23  CG        32.5590   47.7340   58.8190 C.2    94  ASN94       0.2630
     24  OD1       31.7370   48.3660   59.4820 O.2    94  ASN94      -0.2716
     25  ND2       33.8700   47.9010   58.9580 N.am   94  ASN94      -0.0877
     26  N         33.1740   44.7700   54.9670 N.am   95  GLN95      -0.1977
     27  CA        32.8430   43.5630   54.2200 C.3    95  GLN95       0.1601
     28  C         34.1180   42.7690   53.9350 C.2    95  GLN95       0.2287
     29  O         35.1970   43.3480   53.7960 O.2    95  GLN95      -0.2864
     30  CB        32.1650   43.9330   52.8980 C.3    95  GLN95       0.0394
     31  CG        30.9060   44.7780   53.0350 C.3    95  GLN95       0.0908
     32  CD        29.8440   44.1160   53.8910 C.2    95  GLN95       0.2608
     33  OE1       29.8480   42.9020   54.0740 O.2    95  GLN95      -0.2717
     34  NE2       28.9170   44.9130   54.4090 N.am   95  GLN95      -0.0878
     35  N         31.2710   39.9820   55.7610 N.3    97  ASP97      -0.1239
     36  CA        30.9170   39.6980   57.1440 C.3    97  ASP97       0.1674
     37  C         30.0370   38.4680   57.2980 C.2    97  ASP97       0.2266
     38  O         29.8220   37.9980   58.4160 O.2    97  ASP97      -0.2867
     39  CB        30.2050   40.9120   57.7460 C.3    97  ASP97       0.1410
     40  CG        28.8810   41.2120   57.0630 C.2    97  ASP97       0.3668
     41  OD1       28.8050   41.0880   55.8210 O.co2  97  ASP97      -0.2456
     42  OD2       27.9170   41.5800   57.7670 O.co2  97  ASP97      -0.2456
     43  N         26.9710   38.3220   57.0260 N.3    99  TYR99      -0.1241
     44  CA        25.8630   38.7860   57.8590 C.3    99  TYR99       0.1605
     45  C         24.8500   37.6670   58.1310 C.2    99  TYR99       0.2264
     46  O         24.4090   36.9730   57.2110 O.2    99  TYR99      -0.2867
     47  CB        25.1720   39.9770   57.1780 C.3    99  TYR99       0.0534
     48  CG        24.1500   40.7110   58.0280 C.ar   99  TYR99      -0.0201
     49  CD1       23.2140   41.5590   57.4360 C.ar   99  TYR99      -0.0009
     50  CD2       24.1150   40.5600   59.4170 C.ar   99  TYR99      -0.0009
     51  CE1       22.2670   42.2340   58.2000 C.ar   99  TYR99       0.0417
     52  CE2       23.1690   41.2330   60.1920 C.ar   99  TYR99       0.0417
     53  CZ        22.2470   42.0670   59.5750 C.ar   99  TYR99       0.1957
     54  OH        21.2960   42.7240   60.3220 O.3    99  TYR99      -0.2866
     55  N         25.2480   35.1480   53.9760 N.3   103  GLU103     -0.1245
     56  CA        25.7090   35.9060   52.8140 C.3   103  GLU103      0.1567
     57  C         26.9680   35.2450   52.2570 C.2   103  GLU103      0.2260
     58  O         28.0280   35.3080   52.8830 O.2   103  GLU103     -0.2867
     59  CB        26.0290   37.3450   53.2130 C.3   103  GLU103      0.0388
     60  CG        24.8180   38.1880   53.5230 C.3   103  GLU103      0.1160
     61  CD        25.1870   39.5990   53.9410 C.2   103  GLU103      0.3649
     62  OE1       24.2840   40.4630   53.9870 O.co2 103  GLU103     -0.2457
     63  OE2       26.3800   39.8420   54.2280 O.co2 103  GLU103     -0.2457
     64  N         28.3900   40.9980   45.4200 N.3   107  GLU107     -0.1245
     65  CA        27.7350   41.9700   44.5570 C.3   107  GLU107      0.1567
     66  C         28.4710   43.3000   44.5840 C.2   107  GLU107      0.2260
     67  O         29.1900   43.6220   45.5400 O.2   107  GLU107     -0.2867
     68  CB        26.3000   42.2060   45.0230 C.3   107  GLU107      0.0388
     69  CG        26.2170   42.8810   46.3940 C.3   107  GLU107      0.1160
     70  CD        24.8020   42.9250   46.9620 C.2   107  GLU107      0.3649
     71  OE1       24.6260   43.4890   48.0670 O.co2 107  GLU107     -0.2457
     72  OE2       23.8720   42.3920   46.3130 O.co2 107  GLU107     -0.2457
     73  N         25.5920   51.6660   46.1380 N.3   111  LEU111     -0.1245
     74  CA        25.8480   52.9010   46.8740 C.3   111  LEU111      0.1561
     75  C         27.3180   53.3140   46.9000 C.2   111  LEU111      0.2260
     76  O         27.6460   54.4230   47.3260 O.2   111  LEU111     -0.2867
     77  CB        25.3100   52.7960   48.3060 C.3   111  LEU111      0.0270
     78  CG        23.7930   52.6180   48.4470 C.3   111  LEU111      0.0019
     79  CD1       23.4200   52.7020   49.9190 C.3   111  LEU111      0.0001
     80  CD2       23.0500   53.6820   47.6450 C.3   111  LEU111      0.0001
     81  N         30.3130   43.4700   48.2940 N.3   118  ASN118     -0.1240
     82  CA        29.5960   43.0870   49.4940 C.3   118  ASN118      0.1653
     83  C         29.1410   41.6500   49.3660 C.2   118  ASN118      0.2266
     84  O         28.5640   41.2750   48.3450 O.2   118  ASN118     -0.2867
     85  CB        28.3700   43.9900   49.6940 C.3   118  ASN118      0.1155
     86  CG        27.4750   43.5220   50.8440 C.2   118  ASN118      0.2627
     87  OD1       27.9550   43.2350   51.9440 O.2   118  ASN118     -0.2716
     88  ND2       26.1700   43.4530   50.5930 N.am  118  ASN118     -0.0877
     89  N         26.6260   38.9010   49.8840 N.3   120  GLN120     -0.1245
     90  CA        25.1870   39.0460   50.0010 C.3   120  GLN120      0.1566
     91  C         24.4590   37.7070   49.9990 C.2   120  GLN120      0.2260
     92  O         25.0560   36.6670   49.7310 O.2   120  GLN120     -0.2867
     93  CB        24.7220   39.9140   48.8220 C.3   120  GLN120      0.0367
     94  CG        23.2380   40.2020   48.7370 C.3   120  GLN120      0.0905
     95  CD        22.7290   40.8880   49.9760 C.2   120  GLN120      0.2608
     96  OE1       22.2930   40.2330   50.9230 O.2   120  GLN120     -0.2717
     97  NE2       22.8050   42.2150   49.9900 N.am  120  GLN120     -0.0878
@<TRIPOS>BOND
     1    65    66    1
     2    65    68    1
     3    65    64    1
     4    66    67    2
     5    68    69    1
     6    73    74    1
     7    72    70   ar
     8    69    70    1
     9    74    75    1
    10    74    77    1
    11    75    76    2
    12    70    71   ar
    13    80    78    1
    14    81    82    1
    15    77    78    1
    16    84    83    2
    17    78    79    1
    18    94    93    1
    19    94    95    1
    20    93    90    1
    21    83    82    1
    22    82    85    1
    23    85    86    1
    24    92    91    2
    25    89    90    1
    26    95    97   am
    27    95    96    2
    28    91    90    1
    29     1     2    1
    30     5     2    1
    31     5     6    1
    32    88    86   am
    33     8     6   ar
    34     2     3    1
    35     6     7   ar
    36    86    87    2
    37    57    56    1
    38    57    58    2
    39     3     4    2
    40     3     9   am
    41    56    59    1
    42    56    55    1
    43     9    10    1
    44    30    31    1
    45    30    27    1
    46    31    32    1
    47    59    60    1
    48    60    61    1
    49    29    28    2
    50    32    33    2
    51    32    34   am
    52    28    27    1
    53    61    62   ar
    54    61    63   ar
    55    27    26    1
    56    10    13    1
    57    10    11    1
    58    13    14    1
    59    26    20   am
    60    12    11    2
    61    11    18   am
    62    35    36    1
    63    41    40   ar
    64    18    19    1
    65    14    15    1
    66    20    21    2
    67    20    19    1
    68    15    16    1
    69    19    22    1
    70    43    44    1
    71    40    39    1
    72    40    42   ar
    73    36    37    1
    74    36    39    1
    75    47    44    1
    76    47    48    1
    77    46    45    2
    78    37    38    2
    79    49    48   ar
    80    49    51   ar
    81    22    23    1
    82    44    45    1
    83    16    17    1
    84    48    50   ar
    85    51    53   ar
    86    23    25   am
    87    23    24    2
    88    50    52   ar
    89    53    52   ar
    90    53    54    1
