@<TRIPOS>MOLECULE
tmp/1muxA00.pdb
 134 124 0 0 0
SMALL
GASTEIGER

@<TRIPOS>ATOM
      1  N         -0.7470    7.8430  -20.8260 N.3    19  PHE19      -0.1241
      2  CA        -0.4810    8.0350  -22.2810 C.3    19  PHE19       0.1605
      3  C          0.9340    8.5850  -22.5000 C.2    19  PHE19       0.2264
      4  O          1.7380    7.9900  -23.1870 O.2    19  PHE19      -0.2867
      5  CB        -1.5390    9.0430  -22.7430 C.3    19  PHE19       0.0534
      6  CG        -2.9220    8.5530  -22.3410 C.ar   19  PHE19      -0.0203
      7  CD1       -3.1930    7.1610  -22.2560 C.ar   19  PHE19      -0.0042
      8  CD2       -3.9430    9.4870  -22.0450 C.ar   19  PHE19      -0.0042
      9  CE1       -4.4790    6.7120  -21.8790 C.ar   19  PHE19      -0.0003
     10  CE2       -5.2290    9.0330  -21.6670 C.ar   19  PHE19      -0.0003
     11  CZ        -5.4960    7.6470  -21.5840 C.ar   19  PHE19      -0.0000
     12  N          0.8290   15.3130  -25.0190 N.3    27  ILE27      -0.1245
     13  CA         0.6580   14.0200  -25.7470 C.3    27  ILE27       0.1561
     14  C          0.9050   14.2140  -27.2470 C.2    27  ILE27       0.2260
     15  O          0.1500   14.8780  -27.9290 O.2    27  ILE27      -0.2867
     16  CB        -0.7930   13.6110  -25.4910 C.3    27  ILE27       0.0252
     17  CG1       -0.9710   13.2520  -24.0140 C.3    27  ILE27       0.0019
     18  CG2       -1.1430   12.3980  -26.3540 C.3    27  ILE27       0.0019
     19  CD1       -2.4380   13.4270  -23.6190 C.3    27  ILE27       0.0001
     20  N          1.2360    8.7340  -28.1610 N.3    32  LEU32      -0.1245
     21  CA        -0.1080    8.1360  -28.3670 C.3    32  LEU32       0.1561
     22  C          0.0280    6.8550  -29.1870 C.2    32  LEU32       0.2260
     23  O         -0.7040    5.9060  -29.0050 O.2    32  LEU32      -0.2867
     24  CB        -0.8920    9.1880  -29.1440 C.3    32  LEU32       0.0270
     25  CG        -2.3400    8.7320  -29.3060 C.3    32  LEU32       0.0019
     26  CD1       -3.1950    9.3520  -28.2000 C.3    32  LEU32       0.0001
     27  CD2       -2.8630    9.1860  -30.6700 C.3    32  LEU32       0.0001
     28  N          0.5310    4.2360  -27.0330 N.3    35  VAL35      -0.1231
     29  CA        -0.6680    4.1240  -26.1540 C.3    35  VAL35       0.1692
     30  C         -1.7300    3.2550  -26.8340 C.2    35  VAL35       0.2591
     31  O         -2.4920    2.5660  -26.1860 O.2    35  VAL35      -0.2718
     32  CB        -1.1580    5.5630  -25.9840 C.3    35  VAL35       0.0266
     33  CG1       -2.5300    5.5720  -25.3080 C.3    35  VAL35       0.0020
     34  CG2       -0.1610    6.3300  -25.1170 C.3    35  VAL35       0.0020
     35  N         -1.7790    3.2770  -28.1380 N.am   36  MET36      -0.1979
     36  CA        -2.7830    2.4480  -28.8650 C.3    36  MET36       0.1605
     37  C         -2.1920    1.0700  -29.1970 C.2    36  MET36       0.2287
     38  O         -2.9080    0.1060  -29.3820 O.2    36  MET36      -0.2864
     39  CB        -3.0850    3.2270  -30.1440 C.3    36  MET36       0.0413
     40  CG        -3.7830    4.5430  -29.7900 C.3    36  MET36       0.0598
     41  SD        -5.3400    4.1880  -28.9340 S.3    36  MET36      -0.1393
     42  CE        -5.8960    5.8990  -28.7570 C.3    36  MET36       0.0692
     43  N         -2.3680   -1.1950  -25.8850 N.3    39  LEU39      -0.1245
     44  CA        -3.7290   -1.6140  -25.4390 C.3    39  LEU39       0.1561
     45  C         -4.2740   -2.7180  -26.3570 C.2    39  LEU39       0.2260
     46  O         -4.2580   -3.8840  -26.0160 O.2    39  LEU39      -0.2867
     47  CB        -4.5880   -0.3530  -25.5450 C.3    39  LEU39       0.0270
     48  CG        -4.0730    0.7030  -24.5640 C.3    39  LEU39       0.0019
     49  CD1       -4.9170    1.9730  -24.6870 C.3    39  LEU39       0.0001
     50  CD2       -4.1750    0.1650  -23.1360 C.3    39  LEU39       0.0001
     51  N         -4.5550   -2.1570  -30.3980 N.3    41  GLN41      -0.1245
     52  CA        -4.7460   -1.5180  -31.7340 C.3    41  GLN41       0.1566
     53  C         -3.4230   -1.4930  -32.5050 C.2    41  GLN41       0.2260
     54  O         -2.3560   -1.5640  -31.9300 O.2    41  GLN41      -0.2867
     55  CB        -5.2120   -0.0960  -31.4270 C.3    41  GLN41       0.0367
     56  CG        -6.6650    0.0710  -31.8690 C.3    41  GLN41       0.0905
     57  CD        -7.1770    1.4410  -31.4270 C.2    41  GLN41       0.2608
     58  OE1       -7.3270    1.6960  -30.2470 O.2    41  GLN41      -0.2717
     59  NE2       -7.4520    2.3430  -32.3280 N.am   41  GLN41      -0.0878
     60  N         -6.7410   11.1250  -36.0220 N.3    51  MET51      -0.1230
     61  CA        -7.4890   11.0280  -34.7360 C.3    51  MET51       0.1702
     62  C         -7.0570   12.1630  -33.8020 C.2    51  MET51       0.2592
     63  O         -7.7170   12.4650  -32.8270 O.2    51  MET51      -0.2718
     64  CB        -7.1090    9.6640  -34.1510 C.3    51  MET51       0.0401
     65  CG        -8.0720    9.3140  -33.0120 C.3    51  MET51       0.0596
     66  SD        -8.3840    7.5280  -33.0040 S.3    51  MET51      -0.1393
     67  CE        -6.8860    7.0270  -32.1180 C.3    51  MET51       0.0692
     68  N         -5.9490   12.7970  -34.0970 N.am   52  ILE52      -0.1980
     69  CA        -5.4730   13.9150  -33.2350 C.3    52  ILE52       0.1595
     70  C         -6.0780   15.2420  -33.7080 C.2    52  ILE52       0.2287
     71  O         -6.2230   16.1750  -32.9440 O.2    52  ILE52      -0.2864
     72  CB        -3.9560   13.9270  -33.4100 C.3    52  ILE52       0.0276
     73  CG1       -3.3730   12.6080  -32.9000 C.3    52  ILE52       0.0022
     74  CG2       -3.3590   15.0910  -32.6180 C.3    52  ILE52       0.0022
     75  CD1       -3.6600   12.4650  -31.4060 C.3    52  ILE52       0.0001
     76  N         -9.0580   15.9630  -34.3080 N.3    54  GLU54      -0.1231
     77  CA       -10.3000   16.2390  -33.5330 C.3    54  GLU54       0.1699
     78  C         -9.9450   16.6180  -32.0930 C.2    54  GLU54       0.2592
     79  O        -10.7010   17.2810  -31.4110 O.2    54  GLU54      -0.2718
     80  CB       -11.0950   14.9340  -33.5640 C.3    54  GLU54       0.0402
     81  CG       -10.2640   13.8120  -32.9370 C.3    54  GLU54       0.1161
     82  CD       -11.1810   12.6390  -32.5820 C.2    54  GLU54       0.3649
     83  OE1      -12.0770   12.8360  -31.7780 O.co2  54  GLU54      -0.2457
     84  OE2      -10.9700   11.5640  -33.1190 O.co2  54  GLU54      -0.2457
     85  N         -8.7980   16.2040  -31.6260 N.am   55  VAL55      -0.1980
     86  CA        -8.3970   16.5430  -30.2310 C.3    55  VAL55       0.1595
     87  C         -7.4440   17.7470  -30.2350 C.2    55  VAL55       0.2287
     88  O         -6.6740   17.9450  -29.3170 O.2    55  VAL55      -0.2864
     89  CB        -7.6890   15.2960  -29.7070 C.3    55  VAL55       0.0276
     90  CG1       -7.3260   15.5010  -28.2370 C.3    55  VAL55       0.0022
     91  CG2       -8.6210   14.0880  -29.8360 C.3    55  VAL55       0.0022
     92  N         -1.5850   17.5450  -28.0590 N.3    63  ILE63      -0.1245
     93  CA        -2.6550   17.8960  -27.0830 C.3    63  ILE63       0.1561
     94  C         -2.0340   18.3620  -25.7670 C.2    63  ILE63       0.2260
     95  O         -0.9500   17.9510  -25.4000 O.2    63  ILE63      -0.2867
     96  CB        -3.4440   16.6100  -26.8830 C.3    63  ILE63       0.0252
     97  CG1       -3.9270   16.0990  -28.2430 C.3    63  ILE63       0.0019
     98  CG2       -4.6480   16.8890  -25.9800 C.3    63  ILE63       0.0019
     99  CD1       -4.4790   14.6830  -28.0950 C.3    63  ILE63       0.0001
    100  N         -7.1510   17.9690  -22.8320 N.3    68  PHE68      -0.1241
    101  CA        -7.4600   16.5710  -22.4360 C.3    68  PHE68       0.1605
    102  C         -8.5310   16.5500  -21.3450 C.2    68  PHE68       0.2264
    103  O         -9.3980   15.6950  -21.3260 O.2    68  PHE68      -0.2867
    104  CB        -6.1450   16.0100  -21.9000 C.3    68  PHE68       0.0534
    105  CG        -6.3580   14.5900  -21.4400 C.ar   68  PHE68      -0.0203
    106  CD1       -7.0670   14.3330  -20.2410 C.ar   68  PHE68      -0.0042
    107  CD2       -5.8560   13.5160  -22.2080 C.ar   68  PHE68      -0.0042
    108  CE1       -7.2700   13.0000  -19.8120 C.ar   68  PHE68      -0.0003
    109  CE2       -6.0570   12.1850  -21.7790 C.ar   68  PHE68      -0.0003
    110  CZ        -6.7650   11.9260  -20.5800 C.ar   68  PHE68      -0.0000
    111  N        -12.0090   17.9490  -22.6860 N.3    71  MET71      -0.1230
    112  CA       -12.6740   17.0380  -23.6640 C.3    71  MET71       0.1702
    113  C        -13.2800   15.8200  -22.9520 C.2    71  MET71       0.2592
    114  O        -14.3710   15.3870  -23.2650 O.2    71  MET71      -0.2718
    115  CB       -11.5590   16.5970  -24.6080 C.3    71  MET71       0.0401
    116  CG       -12.1540   15.7890  -25.7630 C.3    71  MET71       0.0596
    117  SD       -10.8200   15.1880  -26.8300 S.3    71  MET71      -0.1393
    118  CE       -10.1620   13.9380  -25.6980 C.3    71  MET71       0.0692
    119  N        -12.5730   15.2500  -22.0140 N.am   72  MET72      -0.1979
    120  CA       -13.1050   14.0440  -21.3050 C.3    72  MET72       0.1605
    121  C        -13.9100   14.4340  -20.0530 C.2    72  MET72       0.2287
    122  O        -14.5640   13.6050  -19.4500 O.2    72  MET72      -0.2864
    123  CB       -11.8620   13.2450  -20.9240 C.3    72  MET72       0.0413
    124  CG       -11.0640   12.9300  -22.1910 C.3    72  MET72       0.0598
    125  SD        -9.5870   11.9760  -21.7660 S.3    72  MET72      -0.1393
    126  CE        -8.7850   12.0880  -23.3850 C.3    72  MET72       0.0692
    127  N        -17.8900   11.7860  -22.5600 N.3    76  MET76      -0.1245
    128  CA       -16.9870   10.5590  -22.5010 C.3    76  MET76       0.1570
    129  C        -17.8190    9.2590  -22.4530 C.2    76  MET76       0.2261
    130  O        -17.4830    8.2800  -23.0900 O.2    76  MET76      -0.2867
    131  CB       -16.1240   10.7020  -21.2350 C.3    76  MET76       0.0387
    132  CG       -14.8960    9.7960  -21.3500 C.3    76  MET76       0.0595
    133  SD       -13.8040   10.0690  -19.9310 S.3    76  MET76      -0.1393
    134  CE       -12.4940    8.9220  -20.4260 C.3    76  MET76       0.0692
@<TRIPOS>BOND
     1    60    61    1
     2    61    64    1
     3    61    62    1
     4    76    77    1
     5    64    65    1
     6    68    62   am
     7    68    69    1
     8    62    63    2
     9    70    69    1
    10    70    71    2
    11    80    77    1
    12    80    81    1
    13    77    78    1
    14    72    69    1
    15    72    73    1
    16    72    74    1
    17    84    82   ar
    18    65    66    1
    19    66    67    1
    20    81    82    1
    21    73    75    1
    22    82    83   ar
    23    53    54    2
    24    53    52    1
    25    59    57   am
    26    78    85   am
    27    78    79    2
    28    56    55    1
    29    56    57    1
    30    52    55    1
    31    52    51    1
    32    85    86    1
    33    57    58    2
    34    27    25    1
    35    87    86    1
    36    87    88    2
    37    86    89    1
    38    39    40    1
    39    39    36    1
    40    91    89    1
    41    40    41    1
    42    89    90    1
    43    38    37    2
    44    25    24    1
    45    25    26    1
    46    37    36    1
    47    22    23    2
    48    22    21    1
    49    24    21    1
    50    41    42    1
    51    36    35    1
    52    21    20    1
    53    97    99    1
    54    97    96    1
    55    35    30   am
    56    92    93    1
    57    15    14    2
    58    14    13    1
    59    93    96    1
    60    93    94    1
    61    28    29    1
    62    96    98    1
    63    30    31    2
    64    30    29    1
    65   117   116    1
    66   117   118    1
    67    45    46    2
    68    45    44    1
    69    18    16    1
    70    29    32    1
    71    32    33    1
    72    32    34    1
    73    43    44    1
    74    94    95    2
    75   116   115    1
    76    13    16    1
    77    13    12    1
    78    47    44    1
    79    47    48    1
    80    16    17    1
    81    49    48    1
    82   115   112    1
    83    48    50    1
    84    17    19    1
    85   112   113    1
    86   112   111    1
    87   126   125    1
    88   114   113    2
    89     4     3    2
    90   130   129    2
    91   113   119   am
    92   100   101    1
    93     5     6    1
    94     5     2    1
    95   127   128    1
    96   128   129    1
    97   128   131    1
    98     3     2    1
    99   101   104    1
   100   101   102    1
   101     6     7   ar
   102     6     8   ar
   103     2     1    1
   104     7     9   ar
   105   107   109   ar
   106   107   105   ar
   107   124   125    1
   108   124   123    1
   109     8    10   ar
   110   119   120    1
   111   104   105    1
   112     9    11   ar
   113   109   110   ar
   114    10    11   ar
   115   105   106   ar
   116   132   131    1
   117   132   133    1
   118   102   103    2
   119   120   123    1
   120   120   121    1
   121   110   108   ar
   122   134   133    1
   123   106   108   ar
   124   121   122    2
