@<TRIPOS>MOLECULE
tmp/1muxA01.pdb
 146 137 0 0 0
SMALL
GASTEIGER

@<TRIPOS>ATOM
      1  N        -34.0540    7.0770   -9.7250 N.3    83  GLU83      -0.1231
      2  CA       -34.4630    6.3660   -8.4750 C.3    83  GLU83       0.1699
      3  C        -35.0930    5.0080   -8.8050 C.2    83  GLU83       0.2592
      4  O        -35.3130    4.1900   -7.9340 O.2    83  GLU83      -0.2718
      5  CB       -35.4930    7.2860   -7.8210 C.3    83  GLU83       0.0402
      6  CG       -34.8010    8.5520   -7.3170 C.3    83  GLU83       0.1161
      7  CD       -33.8310    8.1890   -6.1910 C.2    83  GLU83       0.3649
      8  OE1      -34.2930    7.7100   -5.1680 O.co2  83  GLU83      -0.2457
      9  OE2      -32.6420    8.3980   -6.3700 O.co2  83  GLU83      -0.2457
     10  N        -35.3880    4.7620  -10.0520 N.am   84  GLU84      -0.1966
     11  CA       -36.0060    3.4590  -10.4260 C.3    84  GLU84       0.1733
     12  C        -34.9190    2.4200  -10.7320 C.2    84  GLU84       0.2616
     13  O        -34.7750    1.4310  -10.0340 O.2    84  GLU84      -0.2715
     14  CB       -36.8290    3.7560  -11.6800 C.3    84  GLU84       0.0429
     15  CG       -37.9860    4.6890  -11.3220 C.3    84  GLU84       0.1163
     16  CD       -39.0880    3.8920  -10.6240 C.2    84  GLU84       0.3649
     17  OE1      -39.6170    2.9840  -11.2440 O.co2  84  GLU84      -0.2457
     18  OE2      -39.3830    4.2010   -9.4830 O.co2  84  GLU84      -0.2457
     19  N        -34.1530    2.6350  -11.7680 N.am   85  ILE85      -0.1977
     20  CA       -33.0760    1.6600  -12.1170 C.3    85  ILE85       0.1596
     21  C        -31.9940    1.6440  -11.0230 C.2    85  ILE85       0.2287
     22  O        -31.1280    0.7920  -11.0070 O.2    85  ILE85      -0.2864
     23  CB       -32.4970    2.1630  -13.4460 C.3    85  ILE85       0.0276
     24  CG1      -33.6210    2.2800  -14.4860 C.3    85  ILE85       0.0022
     25  CG2      -31.4430    1.1780  -13.9510 C.3    85  ILE85       0.0022
     26  CD1      -34.3760    0.9510  -14.5810 C.3    85  ILE85       0.0001
     27  N        -32.4960    1.4280   -7.4860 N.3    87  GLU87      -0.1231
     28  CA       -32.8320    0.3480   -6.5160 C.3    87  GLU87       0.1699
     29  C        -32.8150   -1.0030   -7.2270 C.2    87  GLU87       0.2592
     30  O        -32.4300   -2.0090   -6.6660 O.2    87  GLU87      -0.2718
     31  CB       -34.2420    0.6770   -6.0350 C.3    87  GLU87       0.0402
     32  CG       -34.2300    2.0270   -5.3130 C.3    87  GLU87       0.1161
     33  CD       -35.6510    2.3890   -4.8770 C.2    87  GLU87       0.3649
     34  OE1      -36.2230    1.6370   -4.1070 O.co2  87  GLU87      -0.2457
     35  OE2      -36.1430    3.4150   -5.3220 O.co2  87  GLU87      -0.2457
     36  N        -33.2320   -1.0290   -8.4600 N.am   88  ALA88      -0.1980
     37  CA       -33.2450   -2.3100   -9.2170 C.3    88  ALA88       0.1597
     38  C        -31.8410   -2.9220   -9.2530 C.2    88  ALA88       0.2287
     39  O        -31.6400   -4.0590   -8.8870 O.2    88  ALA88      -0.2864
     40  CB       -33.7010   -1.9300  -10.6220 C.3    88  ALA88       0.0319
     41  N        -30.6680   -4.3950   -5.9860 N.3    91  VAL91      -0.1231
     42  CA       -31.2470   -5.6900   -5.5260 C.3    91  VAL91       0.1692
     43  C        -30.7960   -6.8430   -6.4420 C.2    91  VAL91       0.2592
     44  O        -30.8230   -7.9960   -6.0590 O.2    91  VAL91      -0.2718
     45  CB       -32.7610   -5.4970   -5.6130 C.3    91  VAL91       0.0266
     46  CG1      -33.1900   -4.3550   -4.6890 C.3    91  VAL91       0.0020
     47  CG2      -33.1510   -5.1570   -7.0500 C.3    91  VAL91       0.0020
     48  N        -30.3870   -6.5390   -7.6490 N.am   92  PHE92      -0.1976
     49  CA       -29.9410   -7.6240   -8.5820 C.3    92  PHE92       0.1639
     50  C        -28.4220   -7.8210   -8.4930 C.2    92  PHE92       0.2290
     51  O        -27.8840   -8.7890   -8.9950 O.2    92  PHE92      -0.2864
     52  CB       -30.3420   -7.1380   -9.9750 C.3    92  PHE92       0.0560
     53  CG       -31.8370   -6.9070  -10.0120 C.ar   92  PHE92      -0.0200
     54  CD1      -32.7100   -7.7980   -9.3410 C.ar   92  PHE92      -0.0042
     55  CD2      -32.3640   -5.8000  -10.7150 C.ar   92  PHE92      -0.0042
     56  CE1      -34.1060   -7.5800   -9.3730 C.ar   92  PHE92      -0.0003
     57  CE2      -33.7610   -5.5810  -10.7450 C.ar   92  PHE92      -0.0003
     58  CZ       -34.6320   -6.4710  -10.0740 C.ar   92  PHE92      -0.0000
     59  N        -26.0360   -8.1910  -13.7720 N.3   100  ILE100     -0.1245
     60  CA       -27.1380   -9.1460  -13.4550 C.3   100  ILE100      0.1561
     61  C        -26.9640  -10.4360  -14.2670 C.2   100  ILE100      0.2260
     62  O        -26.9310  -10.4160  -15.4860 O.2   100  ILE100     -0.2867
     63  CB       -28.4350   -8.4260  -13.8570 C.3   100  ILE100      0.0252
     64  CG1      -28.4350   -6.9990  -13.2950 C.3   100  ILE100      0.0019
     65  CG2      -29.6370   -9.1840  -13.2880 C.3   100  ILE100      0.0019
     66  CD1      -29.6450   -6.2370  -13.8410 C.3   100  ILE100      0.0001
     67  N        -30.7230  -13.6890  -10.8370 N.3   105  LEU105     -0.1245
     68  CA       -32.1810  -13.4450  -11.0350 C.3   105  LEU105      0.1561
     69  C        -32.9930  -14.6140  -10.4700 C.2   105  LEU105      0.2260
     70  O        -34.0260  -14.4270   -9.8600 O.2   105  LEU105     -0.2867
     71  CB       -32.3650  -13.3490  -12.5490 C.3   105  LEU105      0.0270
     72  CG       -33.7360  -12.7460  -12.8590 C.3   105  LEU105      0.0019
     73  CD1      -33.6890  -11.2360  -12.6430 C.3   105  LEU105      0.0001
     74  CD2      -34.1050  -13.0390  -14.3140 C.3   105  LEU105      0.0001
     75  N        -35.9820  -13.9850   -7.5190 N.3   109  MET109     -0.1245
     76  CA       -37.4500  -14.1970   -7.6700 C.3   109  MET109      0.1570
     77  C        -37.9730  -15.1250   -6.5700 C.2   109  MET109      0.2261
     78  O        -39.0940  -15.0000   -6.1220 O.2   109  MET109     -0.2867
     79  CB       -37.6130  -14.8450   -9.0450 C.3   109  MET109      0.0387
     80  CG       -37.1170  -13.8840  -10.1270 C.3   109  MET109      0.0595
     81  SD       -38.1570  -12.4010  -10.1400 S.3   109  MET109     -0.1393
     82  CE       -37.2990  -11.5290  -11.4730 C.3   109  MET109      0.0692
     83  N        -35.9820  -14.4300  -19.6380 N.3   124  MET124     -0.1230
     84  CA       -36.0800  -12.9870  -19.2720 C.3   124  MET124      0.1702
     85  C        -34.7750  -12.2740  -19.6180 C.2   124  MET124      0.2592
     86  O        -34.7410  -11.3770  -20.4380 O.2   124  MET124     -0.2718
     87  CB       -36.3130  -12.9730  -17.7600 C.3   124  MET124      0.0401
     88  CG       -37.7600  -13.3690  -17.4600 C.3   124  MET124      0.0596
     89  SD       -37.9190  -13.8040  -15.7070 S.3   124  MET124     -0.1393
     90  CE       -37.5420  -12.1720  -15.0180 C.3   124  MET124      0.0692
     91  N        -33.6970  -12.6680  -18.9990 N.am  125  ILE125     -0.1980
     92  CA       -32.3880  -12.0180  -19.2920 C.3   125  ILE125      0.1595
     93  C        -32.1520  -11.9650  -20.8050 C.2   125  ILE125      0.2287
     94  O        -31.5020  -11.0730  -21.3060 O.2   125  ILE125     -0.2864
     95  CB       -31.3470  -12.9110  -18.6190 C.3   125  ILE125      0.0276
     96  CG1      -31.5030  -12.8220  -17.0900 C.3   125  ILE125      0.0022
     97  CG2      -29.9380  -12.4590  -19.0260 C.3   125  ILE125      0.0022
     98  CD1      -31.0360  -11.4480  -16.5900 C.3   125  ILE125      0.0001
     99  N        -34.4660  -11.5480  -23.2210 N.3   127  GLU127     -0.1231
    100  CA       -35.2850  -10.4520  -23.8230 C.3   127  GLU127      0.1699
    101  C        -34.6630   -9.0850  -23.5130 C.2   127  GLU127      0.2592
    102  O        -34.8140   -8.1420  -24.2640 O.2   127  GLU127     -0.2718
    103  CB       -36.6600  -10.5730  -23.1670 C.3   127  GLU127      0.0402
    104  CG       -37.3450  -11.8560  -23.6450 C.3   127  GLU127      0.1161
    105  CD       -38.7400  -11.9530  -23.0210 C.2   127  GLU127      0.3649
    106  OE1      -39.0920  -11.0660  -22.2620 O.co2 127  GLU127     -0.2457
    107  OE2      -39.4320  -12.9140  -23.3150 O.co2 127  GLU127     -0.2457
    108  N        -33.9700   -8.9670  -22.4120 N.am  128  ALA128     -0.1980
    109  CA       -33.3490   -7.6520  -22.0630 C.3   128  ALA128      0.1597
    110  C        -31.9070   -7.5830  -22.5670 C.2   128  ALA128      0.2287
    111  O        -31.3240   -6.5200  -22.6570 O.2   128  ALA128     -0.2864
    112  CB       -33.3740   -7.5870  -20.5390 C.3   128  ALA128      0.0319
    113  N        -26.0460   -8.8090  -18.2020 N.3   136  VAL136     -0.1245
    114  CA       -26.7530   -7.5020  -18.3490 C.3   136  VAL136      0.1561
    115  C        -26.0480   -6.4150  -17.5320 C.2   136  VAL136      0.2260
    116  O        -25.4050   -6.6900  -16.5390 O.2   136  VAL136     -0.2867
    117  CB       -28.1620   -7.7470  -17.8100 C.3   136  VAL136      0.0252
    118  CG1      -29.0060   -6.4830  -17.9920 C.3   136  VAL136      0.0019
    119  CG2      -28.8070   -8.9050  -18.5750 C.3   136  VAL136      0.0019
    120  N        -30.6130   -2.4400  -18.4670 N.3   141  PHE141     -0.1241
    121  CA       -31.8030   -2.3620  -17.5640 C.3   141  PHE141      0.1605
    122  C        -32.5830   -1.0590  -17.7940 C.2   141  PHE141      0.2264
    123  O        -33.7890   -1.0150  -17.6510 O.2   141  PHE141     -0.2867
    124  CB       -31.2330   -2.3920  -16.1470 C.3   141  PHE141      0.0534
    125  CG       -32.3100   -2.8440  -15.1940 C.ar  141  PHE141     -0.0203
    126  CD1      -33.4560   -2.0420  -14.9970 C.ar  141  PHE141     -0.0042
    127  CD2      -32.1790   -4.0740  -14.5050 C.ar  141  PHE141     -0.0042
    128  CE1      -34.4740   -2.4650  -14.1120 C.ar  141  PHE141     -0.0003
    129  CE2      -33.1960   -4.4980  -13.6180 C.ar  141  PHE141     -0.0003
    130  CZ       -34.3460   -3.6920  -13.4230 C.ar  141  PHE141     -0.0000
    131  N        -34.4370   -1.5460  -21.2440 N.3   144  MET144     -0.1230
    132  CA       -35.3350   -2.7310  -21.3540 C.3   144  MET144      0.1702
    133  C        -36.6390   -2.4950  -20.5810 C.2   144  MET144      0.2592
    134  O        -37.6930   -2.9580  -20.9690 O.2   144  MET144     -0.2718
    135  CB       -34.5380   -3.9000  -20.7580 C.3   144  MET144      0.0401
    136  CG       -34.4680   -3.7730  -19.2340 C.3   144  MET144      0.0596
    137  SD       -33.7380   -5.2790  -18.5450 S.3   144  MET144     -0.1393
    138  CE       -34.1100   -4.9390  -16.8090 C.3   144  MET144      0.0692
    139  N        -36.5740   -1.7890  -19.4870 N.am  145  MET145     -0.1979
    140  CA       -37.8100   -1.5380  -18.6920 C.3   145  MET145      0.1605
    141  C        -38.5910   -0.3560  -19.2770 C.2   145  MET145      0.2287
    142  O        -39.8030   -0.3790  -19.3490 O.2   145  MET145     -0.2864
    143  CB       -37.3170   -1.2150  -17.2830 C.3   145  MET145      0.0413
    144  CG       -38.3900   -1.6110  -16.2680 C.3   145  MET145      0.0598
    145  SD       -38.6140   -3.4080  -16.2950 S.3   145  MET145     -0.1393
    146  CE       -36.9340   -3.8510  -15.7940 C.3   145  MET145      0.0692
@<TRIPOS>BOND
     1   102   101    2
     2   100   101    1
     3   100    99    1
     4   100   103    1
     5   104   103    1
     6   104   105    1
     7   101   108   am
     8   107   105   ar
     9   105   106   ar
    10   111   110    2
    11   110   109    1
    12   108   109    1
    13   109   112    1
    14   132   131    1
    15   132   135    1
    16   132   133    1
    17    94    93    2
    18   134   133    2
    19    93    92    1
    20   135   136    1
    21   133   139   am
    22    86    85    2
    23    83    84    1
    24    85    84    1
    25    85    91   am
    26   139   140    1
    27   142   141    2
    28    92    91    1
    29    92    95    1
    30   141   140    1
    31    84    87    1
    32   136   137    1
    33    97    95    1
    34   140   143    1
    35    95    96    1
    36   119   117    1
    37   137   138    1
    38   120   121    1
    39   114   113    1
    40   114   117    1
    41   114   115    1
    42   118   117    1
    43   122   123    2
    44   122   121    1
    45    87    88    1
    46   121   124    1
    47   115   116    2
    48    88    89    1
    49   143   144    1
    50    96    98    1
    51   145   144    1
    52   145   146    1
    53   124   125    1
    54    89    90    1
    55    62    61    2
    56   125   126   ar
    57   125   127   ar
    58   126   128   ar
    59    26    24    1
    60   127   129   ar
    61    24    23    1
    62    74    72    1
    63    61    60    1
    64   128   130   ar
    65    25    23    1
    66    63    60    1
    67    63    64    1
    68    63    65    1
    69    66    64    1
    70    59    60    1
    71   129   130   ar
    72    23    20    1
    73    72    73    1
    74    72    71    1
    75    71    68    1
    76    20    19    1
    77    20    21    1
    78    19    12   am
    79    14    15    1
    80    14    11    1
    81    82    81    1
    82    15    16    1
    83    17    16   ar
    84    68    67    1
    85    68    69    1
    86    21    22    2
    87    57    55   ar
    88    57    58   ar
    89    12    11    1
    90    12    13    2
    91    55    53   ar
    92    16    18   ar
    93    40    37    1
    94    69    70    2
    95    11    10    1
    96    81    80    1
    97    80    79    1
    98    58    56   ar
    99    10     3   am
   100    53    52    1
   101    53    54   ar
   102    52    49    1
   103     1     2    1
   104    56    54   ar
   105    38    37    1
   106    38    39    2
   107    37    36    1
   108    79    76    1
   109    51    50    2
   110     3     2    1
   111     3     4    2
   112    49    50    1
   113    49    48    1
   114     2     5    1
   115    36    29   am
   116     5     6    1
   117    76    75    1
   118    76    77    1
   119    48    43   am
   120    27    28    1
   121     6     7    1
   122    29    30    2
   123    29    28    1
   124    47    45    1
   125    77    78    2
   126    28    31    1
   127    43    44    2
   128    43    42    1
   129     9     7   ar
   130     7     8   ar
   131    31    32    1
   132    41    42    1
   133    45    42    1
   134    45    46    1
   135    35    33   ar
   136    32    33    1
   137    33    34   ar
