@<TRIPOS>MOLECULE
tmp/1mv5D00.pdb
 89 86 0 0 0
SMALL
GASTEIGER

@<TRIPOS>ATOM
      1  N         35.3480   27.1760   80.7660 N.3    11  TYR11      -0.1227
      2  CA        34.9850   28.4270   81.4470 C.3    11  TYR11       0.1736
      3  C         33.9760   29.2150   80.5530 C.2    11  TYR11       0.2595
      4  O         32.9650   29.7640   81.0340 O.2    11  TYR11      -0.2718
      5  CB        36.1970   29.4120   81.6470 C.3    11  TYR11       0.0548
      6  CG        37.4750   29.0590   82.4180 C.ar   11  TYR11      -0.0200
      7  CD1       38.4380   28.2410   81.8770 C.ar   11  TYR11      -0.0009
      8  CD2       37.7690   29.6400   83.6360 C.ar   11  TYR11      -0.0009
      9  CE1       39.6550   28.0040   82.5170 C.ar   11  TYR11       0.0417
     10  CE2       38.9950   29.4030   84.2750 C.ar   11  TYR11       0.0417
     11  CZ        39.9250   28.5840   83.7100 C.ar   11  TYR11       0.1957
     12  OH        41.1230   28.3320   84.3360 O.3    11  TYR11      -0.2866
     13  N         34.2890   29.2960   79.2570 N.am   12  ASP12      -0.1974
     14  CA        33.5090   30.0940   78.3230 C.3    12  ASP12       0.1709
     15  C         32.4430   29.3740   77.6020 C.2    12  ASP12       0.2293
     16  O         31.3120   29.8570   77.6110 O.2    12  ASP12      -0.2864
     17  CB        34.4370   30.7540   77.3040 C.3    12  ASP12       0.1436
     18  CG        33.9980   32.1660   76.9410 C.2    12  ASP12       0.3671
     19  OD1       33.0610   32.2980   76.1080 O.co2  12  ASP12      -0.2456
     20  OD2       34.5940   33.1430   77.4760 O.co2  12  ASP12      -0.2456
     21  N         35.3150   26.9940   73.7980 N.3    15  GLU15      -0.1245
     22  CA        36.5720   26.3270   73.8590 C.3    15  GLU15       0.1567
     23  C         36.4830   25.3370   75.0000 C.2    15  GLU15       0.2260
     24  O         36.5320   25.7290   76.1500 O.2    15  GLU15      -0.2867
     25  CB        37.6860   27.3580   74.0800 C.3    15  GLU15       0.0388
     26  CG        38.8820   27.1960   73.1570 C.3    15  GLU15       0.1160
     27  CD        40.0060   28.1200   73.5230 C.2    15  GLU15       0.3649
     28  OE1       39.7210   29.2390   73.9680 O.co2  15  GLU15      -0.2457
     29  OE2       41.1850   27.7330   73.3910 O.co2  15  GLU15      -0.2457
     30  N         38.0200   23.5230   77.2750 N.3    17  ILE17      -0.1245
     31  CA        39.3350   23.4430   77.8840 C.3    17  ILE17       0.1561
     32  C         39.7580   22.0740   78.2850 C.2    17  ILE17       0.2260
     33  O         40.8340   21.6300   77.8820 O.2    17  ILE17      -0.2867
     34  CB        39.5030   24.4960   78.9540 C.3    17  ILE17       0.0252
     35  CG1       39.4010   25.7940   78.2040 C.3    17  ILE17       0.0019
     36  CG2       40.9190   24.4780   79.6310 C.3    17  ILE17       0.0019
     37  CD1       39.0770   26.8980   78.9920 C.3    17  ILE17       0.0001
     38  N         51.8490   25.6140   78.2260 N.3    37  SER37      -0.1202
     39  CA        51.0530   26.7080   78.8230 C.3    37  SER37       0.2020
     40  C         49.5410   26.7190   78.6770 C.2    37  SER37       0.2619
     41  O         48.8540   27.0610   79.6030 O.2    37  SER37      -0.2717
     42  CB        51.5490   28.0800   78.3510 C.3    37  SER37       0.2103
     43  OG        52.9640   28.2170   78.4350 O.3    37  SER37      -0.2182
     44  N         49.0280   26.4100   77.4970 N.am   38  GLY38      -0.1942
     45  CA        47.5950   26.4280   77.2930 C.3    38  GLY38       0.2014
     46  C         46.9230   25.1430   77.6550 C.2    38  GLY38       0.2639
     47  O         45.7210   25.0240   77.4690 O.2    38  GLY38      -0.2714
     48  N         47.7060   24.2090   78.2040 N.am   39  GLY39      -0.1939
     49  CA        47.2340   22.8930   78.6200 C.3    39  GLY39       0.2014
     50  C         45.9850   22.8420   79.4860 C.2    39  GLY39       0.2639
     51  O         44.9370   22.3900   79.0490 O.2    39  GLY39      -0.2714
     52  N         46.0830   23.3240   80.7140 N.am   40  GLY40      -0.1939
     53  CA        44.9230   23.3230   81.5840 C.3    40  GLY40       0.2014
     54  C         45.3430   22.8540   82.9410 C.2    40  GLY40       0.2639
     55  O         44.5100   22.5060   83.7550 O.2    40  GLY40      -0.2714
     56  N         46.6510   22.8890   83.1840 N.am   41  LYS41      -0.1963
     57  CA        47.2430   22.4650   84.4520 C.3    41  LYS41       0.1728
     58  C         46.6510   23.2100   85.6650 C.2    41  LYS41       0.2617
     59  O         46.0340   22.5960   86.5180 O.2    41  LYS41      -0.2715
     60  CB        48.7680   22.6290   84.3860 C.3    41  LYS41       0.0311
     61  CG        49.4670   21.6200   83.4950 C.3    41  LYS41       0.0038
     62  CD        50.3290   22.2520   82.4110 C.3    41  LYS41       0.0206
     63  CE        51.3860   23.1680   82.9770 C.3    41  LYS41       0.1093
     64  NZ        51.8050   24.3270   82.0970 N.3    41  LYS41      -0.1314
     65  N         46.7850   24.5370   85.6710 N.am   42  SER42      -0.1936
     66  CA        46.2600   25.3840   86.7160 C.3    42  SER42       0.2055
     67  C         44.7880   25.1650   86.8050 C.2    42  SER42       0.2643
     68  O         44.2380   25.2470   87.8960 O.2    42  SER42      -0.2714
     69  CB        46.4450   26.8660   86.4040 C.3    42  SER42       0.2130
     70  OG        47.8110   27.2030   86.3140 O.3    42  SER42      -0.2179
     71  N         44.1520   24.9010   85.6550 N.am   43  THR43      -0.1950
     72  CA        42.7050   24.7020   85.6180 C.3    43  THR43       0.1897
     73  C         42.3050   23.4290   86.3010 C.2    43  THR43       0.2313
     74  O         41.2040   23.3580   86.8060 O.2    43  THR43      -0.2863
     75  CB        42.1380   24.7100   84.2330 C.3    43  THR43       0.1794
     76  OG1       42.5880   25.8820   83.5670 O.3    43  THR43      -0.2208
     77  CG2       40.6530   24.7510   84.2910 C.3    43  THR43       0.0378
     78  N         35.6820   26.1040   90.5250 N.3    52  TYR52      -0.1241
     79  CA        34.7360   25.9670   89.4410 C.3    52  TYR52       0.1605
     80  C         34.1540   24.5660   89.4740 C.2    52  TYR52       0.2264
     81  O         34.7960   23.6300   89.9400 O.2    52  TYR52      -0.2867
     82  CB        35.4470   26.1860   88.1110 C.3    52  TYR52       0.0534
     83  CG        36.0680   27.5610   87.8540 C.ar   52  TYR52      -0.0201
     84  CD1       37.4210   27.8230   88.1480 C.ar   52  TYR52      -0.0009
     85  CD2       35.3290   28.5750   87.2280 C.ar   52  TYR52      -0.0009
     86  CE1       38.0210   29.0530   87.8190 C.ar   52  TYR52       0.0417
     87  CE2       35.9190   29.7990   86.8960 C.ar   52  TYR52       0.0417
     88  CZ        37.2600   30.0290   87.1970 C.ar   52  TYR52       0.1957
     89  OH        37.8070   31.2500   86.8930 O.3    52  TYR52      -0.2866
@<TRIPOS>BOND
     1    26    27    1
     2    26    25    1
     3    29    27   ar
     4    27    28   ar
     5    21    22    1
     6    22    25    1
     7    22    23    1
     8    23    24    2
     9    19    18   ar
    10    18    17    1
    11    18    20   ar
    12    30    31    1
    13    45    44    1
    14    45    46    1
    15    17    14    1
    16    47    46    2
    17    44    40   am
    18    15    16    2
    19    15    14    1
    20    46    48   am
    21    33    32    2
    22    31    32    1
    23    31    34    1
    24    35    34    1
    25    35    37    1
    26    48    49    1
    27    38    39    1
    28    14    13    1
    29    42    43    1
    30    42    39    1
    31    49    50    1
    32    40    39    1
    33    40    41    2
    34    34    36    1
    35    51    50    2
    36    13     3   am
    37    50    52   am
    38     3     4    2
    39     3     2    1
    40    52    53    1
    41     1     2    1
    42     2     5    1
    43    53    54    1
    44     5     6    1
    45     7     6   ar
    46     7     9   ar
    47    64    63    1
    48    62    63    1
    49    62    61    1
    50     6     8   ar
    51     9    11   ar
    52    54    56   am
    53    54    55    2
    54    56    57    1
    55    61    60    1
    56    76    75    1
    57     8    10   ar
    58    11    10   ar
    59    11    12    1
    60    75    77    1
    61    75    72    1
    62    60    57    1
    63    57    58    1
    64    72    71    1
    65    72    73    1
    66    71    67   am
    67    58    65   am
    68    58    59    2
    69    65    66    1
    70    73    74    2
    71    70    69    1
    72    69    66    1
    73    66    67    1
    74    67    68    2
    75    89    88    1
    76    87    88   ar
    77    87    85   ar
    78    88    86   ar
    79    85    83   ar
    80    86    84   ar
    81    83    82    1
    82    83    84   ar
    83    82    79    1
    84    79    80    1
    85    79    78    1
    86    80    81    2
