@<TRIPOS>MOLECULE
tmp/1mv5A00.pdb
 122 118 0 0 0
SMALL
GASTEIGER

@<TRIPOS>ATOM
      1  N         45.0920   36.9910   75.9760 N.3    11  TYR11      -0.1227
      2  CA        44.9160   36.9410   77.4330 C.3    11  TYR11       0.1736
      3  C         46.0780   36.1640   78.0610 C.2    11  TYR11       0.2595
      4  O         46.6330   36.5990   79.0800 O.2    11  TYR11      -0.2718
      5  CB        43.5960   36.2510   77.8220 C.3    11  TYR11       0.0548
      6  CG        42.2980   37.0420   77.6400 C.ar   11  TYR11      -0.0200
      7  CD1       41.8390   37.9360   78.5990 C.ar   11  TYR11      -0.0009
      8  CD2       41.4880   36.8320   76.5420 C.ar   11  TYR11      -0.0009
      9  CE1       40.5900   38.5800   78.4490 C.ar   11  TYR11       0.0417
     10  CE2       40.2620   37.4710   76.3950 C.ar   11  TYR11       0.0417
     11  CZ        39.8150   38.3330   77.3450 C.ar   11  TYR11       0.1957
     12  OH        38.5820   38.9160   77.2020 O.3    11  TYR11      -0.2866
     13  N         46.4200   35.0230   77.4450 N.am   12  ASP12      -0.1974
     14  CA        47.4990   34.1500   77.9020 C.3    12  ASP12       0.1709
     15  C         48.5480   33.8100   76.8390 C.2    12  ASP12       0.2293
     16  O         49.0830   34.7090   76.1860 O.2    12  ASP12      -0.2864
     17  CB        46.9460   32.8790   78.6050 C.3    12  ASP12       0.1436
     18  CG        45.8880   32.0970   77.7860 C.2    12  ASP12       0.3671
     19  OD1       45.0370   31.3960   78.4180 O.co2  12  ASP12      -0.2456
     20  OD2       45.9150   32.1490   76.5370 O.co2  12  ASP12      -0.2456
     21  N         46.2480   30.7980   72.7320 N.3    15  GLU15      -0.1245
     22  CA        45.9020   31.3020   71.4220 C.3    15  GLU15       0.1567
     23  C         45.8990   32.8350   71.4460 C.2    15  GLU15       0.2260
     24  O         46.0750   33.4500   72.5040 O.2    15  GLU15      -0.2867
     25  CB        44.5500   30.7070   70.9580 C.3    15  GLU15       0.0388
     26  CG        43.3050   31.3460   71.5630 C.3    15  GLU15       0.1160
     27  CD        42.0420   30.5630   71.2930 C.2    15  GLU15       0.3649
     28  OE1       41.8000   30.2180   70.1210 O.co2  15  GLU15      -0.2457
     29  OE2       41.2850   30.2980   72.2470 O.co2  15  GLU15      -0.2457
     30  N         43.9490   36.1910   70.8220 N.3    17  ILE17      -0.1245
     31  CA        42.5470   36.5480   70.9030 C.3    17  ILE17       0.1561
     32  C         42.0870   37.5620   69.8940 C.2    17  ILE17       0.2260
     33  O         41.0110   37.4230   69.3050 O.2    17  ILE17      -0.2867
     34  CB        42.1850   36.9290   72.3470 C.3    17  ILE17       0.0252
     35  CG1       42.5220   35.7590   73.2830 C.3    17  ILE17       0.0019
     36  CG2       40.7460   37.3260   72.4610 C.3    17  ILE17       0.0019
     37  CD1       41.9010   34.4220   72.9400 C.3    17  ILE17       0.0001
     38  N         30.5210   35.3270   65.2150 N.3    36  PRO36      -0.2102
     39  CA        30.3760   34.0890   65.9780 C.3    36  PRO36       0.1504
     40  C         30.8930   34.2840   67.4000 C.2    36  PRO36       0.2576
     41  O         31.6080   35.2600   67.6870 O.2    36  PRO36      -0.2718
     42  CB        31.2580   33.0980   65.2050 C.3    36  PRO36       0.0282
     43  CG        31.1440   33.5680   63.7970 C.3    36  PRO36       0.0208
     44  CD        31.2290   35.0900   63.9460 C.3    36  PRO36       0.0893
     45  N         30.4620   33.3680   68.2680 N.am   37  SER37      -0.1938
     46  CA        30.8530   33.3100   69.6660 C.3    37  SER37       0.2055
     47  C         32.3330   32.9450   69.6680 C.2    37  SER37       0.2644
     48  O         32.7890   32.1430   68.8570 O.2    37  SER37      -0.2714
     49  CB        30.0530   32.2220   70.3770 C.3    37  SER37       0.2130
     50  OG        30.2340   30.9630   69.7370 O.3    37  SER37      -0.2179
     51  N         33.0740   33.5920   70.5520 N.am   38  GLY38      -0.1939
     52  CA        34.5000   33.3570   70.6570 C.3    38  GLY38       0.2014
     53  C         35.3040   34.2000   69.6840 C.2    38  GLY38       0.2639
     54  O         36.5160   34.0220   69.5470 O.2    38  GLY38      -0.2714
     55  N         34.6220   35.1410   69.0340 N.am   39  GLY39      -0.1939
     56  CA        35.2490   36.0340   68.0730 C.3    39  GLY39       0.2014
     57  C         36.2380   37.0110   68.6530 C.2    39  GLY39       0.2639
     58  O         37.3020   37.2170   68.1280 O.2    39  GLY39      -0.2714
     59  N         35.8830   37.5780   69.7820 N.am   40  GLY40      -0.1939
     60  CA        36.7510   38.5290   70.4280 C.3    40  GLY40       0.2014
     61  C         35.9550   39.7580   70.7680 C.2    40  GLY40       0.2639
     62  O         36.4740   40.7230   71.2950 O.2    40  GLY40      -0.2714
     63  N         34.6630   39.6960   70.4860 N.am   41  LYS41      -0.1963
     64  CA        33.7180   40.7920   70.7070 C.3    41  LYS41       0.1728
     65  C         33.7020   41.4360   72.1180 C.2    41  LYS41       0.2617
     66  O         33.7210   42.6560   72.2190 O.2    41  LYS41      -0.2715
     67  CB        32.3040   40.3150   70.3080 C.3    41  LYS41       0.0311
     68  CG        32.0500   40.2260   68.8270 C.3    41  LYS41       0.0038
     69  CD        30.7020   39.7110   68.5630 C.3    41  LYS41       0.0206
     70  CE        30.6630   38.2610   68.8300 C.3    41  LYS41       0.1093
     71  NZ        29.2690   37.7250   68.6480 N.3    41  LYS41      -0.1314
     72  N         33.6520   40.6250   73.1810 N.am   42  SER42      -0.1936
     73  CA        33.6400   41.0980   74.5690 C.3    42  SER42       0.2055
     74  C         34.9590   41.7080   74.9090 C.2    42  SER42       0.2643
     75  O         35.0680   42.6610   75.6790 O.2    42  SER42      -0.2714
     76  CB        33.4760   39.9250   75.5090 C.3    42  SER42       0.2130
     77  OG        32.1730   39.4510   75.4030 O.3    42  SER42      -0.2179
     78  N         35.9660   41.1010   74.3140 N.am   43  THR43      -0.1950
     79  CA        37.3210   41.4710   74.5370 C.3    43  THR43       0.1897
     80  C         37.6480   42.8840   74.1140 C.2    43  THR43       0.2313
     81  O         38.4180   43.5490   74.7810 O.2    43  THR43      -0.2863
     82  CB        38.2080   40.4210   73.9150 C.3    43  THR43       0.1794
     83  OG1       37.6980   39.1330   74.2690 O.3    43  THR43      -0.2208
     84  CG2       39.5900   40.5340   74.4280 C.3    43  THR43       0.0378
     85  N         42.2680   45.5060   80.4080 N.3    52  TYR52      -0.1241
     86  CA        43.5400   45.0020   79.8660 C.3    52  TYR52       0.1605
     87  C         44.0920   45.9090   78.7600 C.2    52  TYR52       0.2264
     88  O         43.3800   46.7120   78.1780 O.2    52  TYR52      -0.2867
     89  CB        43.4000   43.6230   79.2570 C.3    52  TYR52       0.0534
     90  CG        42.5890   42.6440   80.0390 C.ar   52  TYR52      -0.0201
     91  CD1       41.2420   42.4740   79.7490 C.ar   52  TYR52      -0.0009
     92  CD2       43.1680   41.8490   81.0450 C.ar   52  TYR52      -0.0009
     93  CE1       40.4770   41.5340   80.4260 C.ar   52  TYR52       0.0417
     94  CE2       42.4200   40.8890   81.7430 C.ar   52  TYR52       0.0417
     95  CZ        41.0660   40.7320   81.4270 C.ar   52  TYR52       0.1957
     96  OH        40.2710   39.7910   82.0730 O.3    52  TYR52      -0.2866
     97  N         25.4040   45.5810   74.9900 N.3   164  ASP164     -0.1239
     98  CA        25.5310   44.1510   74.7110 C.3   164  ASP164      0.1674
     99  C         24.2340   43.4470   75.0620 C.2   164  ASP164      0.2266
    100  O         23.6570   43.7080   76.0840 O.2   164  ASP164     -0.2867
    101  CB        26.6780   43.5610   75.5450 C.3   164  ASP164      0.1410
    102  CG        27.0160   42.1030   75.1830 C.2   164  ASP164      0.3668
    103  OD1       26.2220   41.4450   74.4660 O.co2 164  ASP164     -0.2456
    104  OD2       28.0870   41.5980   75.6250 O.co2 164  ASP164     -0.2456
    105  N         27.4280   45.2700   70.7850 N.3   194  ILE194     -0.1245
    106  CA        27.7280   43.9060   70.3320 C.3   194  ILE194      0.1561
    107  C         26.3260   43.4230   69.9600 C.2   194  ILE194      0.2260
    108  O         25.5310   43.0940   70.8190 O.2   194  ILE194     -0.2867
    109  CB        28.3530   43.0160   71.4460 C.3   194  ILE194      0.0252
    110  CG1       29.8360   43.3220   71.5950 C.3   194  ILE194      0.0019
    111  CG2       28.2150   41.5440   71.1100 C.3   194  ILE194      0.0019
    112  CD1       30.4460   42.6610   72.7720 C.3   194  ILE194      0.0001
    113  N         23.0650   41.3420   68.5180 N.3   196  HIS196     -0.1241
    114  CA        22.4820   39.9950   68.5370 C.3   196  HIS196      0.1621
    115  C         21.0220   40.0530   68.0320 C.2   196  HIS196      0.2264
    116  O         20.3980   39.0340   67.6530 O.2   196  HIS196     -0.2867
    117  CB        22.5870   39.3790   69.9140 C.3   196  HIS196      0.0745
    118  CG        23.9970   39.1600   70.3680 C.ar  196  HIS196      0.0817
    119  ND1       24.7770   38.1260   69.9000 N.ar  196  HIS196     -0.2268
    120  CD2       24.7580   39.8170   71.2770 C.ar  196  HIS196      0.1154
    121  CE1       25.9500   38.1460   70.5090 C.ar  196  HIS196      0.1986
    122  NE2       25.9630   39.1630   71.3530 N.ar  196  HIS196     -0.2212
@<TRIPOS>BOND
     1    43    44    1
     2    43    42    1
     3    44    38    1
     4    42    39    1
     5    38    39    1
     6    39    40    1
     7    40    41    2
     8    40    45   am
     9   116   115    2
    10   115   114    1
    11    56    57    1
    12    56    55    1
    13    58    57    2
    14    45    46    1
    15   113   114    1
    16   114   117    1
    17    69    68    1
    18    69    70    1
    19    71    70    1
    20    57    59   am
    21    68    67    1
    22    48    47    2
    23    55    53   am
    24    33    32    2
    25    54    53    2
    26    46    47    1
    27    46    49    1
    28    47    51   am
    29    53    52    1
    30    50    49    1
    31    59    60    1
    32    32    31    1
    33   119   118   ar
    34   119   121   ar
    35   117   118    1
    36   107   106    1
    37   107   108    2
    38    28    27   ar
    39    67    64    1
    40   106   105    1
    41   106   109    1
    42   118   120   ar
    43    60    61    1
    44    63    64    1
    45    63    61   am
    46   121   122   ar
    47    51    52    1
    48    64    65    1
    49    61    62    2
    50    30    31    1
    51    31    34    1
    52    25    22    1
    53    25    26    1
    54   111   109    1
    55   120   122   ar
    56    27    26    1
    57    27    29   ar
    58    22    23    1
    59    22    21    1
    60   109   110    1
    61    23    24    2
    62   110   112    1
    63    65    66    2
    64    65    72   am
    65    34    36    1
    66    34    35    1
    67    37    35    1
    68    72    73    1
    69    82    83    1
    70    82    84    1
    71    82    79    1
    72    80    79    1
    73    80    81    2
    74    78    79    1
    75    78    74   am
    76   103   102   ar
    77    73    74    1
    78    73    76    1
    79    98    97    1
    80    98    99    1
    81    98   101    1
    82    74    75    2
    83    99   100    2
    84   102   101    1
    85   102   104   ar
    86    77    76    1
    87     1     2    1
    88    16    15    2
    89    10     8   ar
    90    10    11   ar
    91    20    18   ar
    92     8     6   ar
    93    15    14    1
    94    12    11    1
    95    11     9   ar
    96     2     5    1
    97     2     3    1
    98    13    14    1
    99    13     3   am
   100     6     5    1
   101     6     7   ar
   102    18    19   ar
   103    18    17    1
   104    14    17    1
   105     3     4    2
   106    88    87    2
   107     9     7   ar
   108    87    86    1
   109    89    86    1
   110    89    90    1
   111    91    90   ar
   112    91    93   ar
   113    86    85    1
   114    90    92   ar
   115    93    95   ar
   116    92    94   ar
   117    95    94   ar
   118    95    96    1
