@<TRIPOS>MOLECULE
tmp/1mv8A03.pdb
 148 149 0 0 0
SMALL
GASTEIGER

@<TRIPOS>ATOM
      1  N        -22.9890   14.6300  -12.0410 N.3   251  LEU251     -0.1245
      2  CA       -22.7060   13.2240  -12.2930 C.3   251  LEU251      0.1561
      3  C        -23.9520   12.4220  -12.6910 C.2   251  LEU251      0.2260
      4  O        -23.9280   11.7010  -13.6690 O.2   251  LEU251     -0.2867
      5  CB       -22.0490   12.5910  -11.0590 C.3   251  LEU251      0.0270
      6  CG       -20.7070   13.1860  -10.6090 C.3   251  LEU251      0.0019
      7  CD1      -20.1500   12.4380   -9.4250 C.3   251  LEU251      0.0001
      8  CD2      -19.6910   13.2150  -11.7270 C.3   251  LEU251      0.0001
      9  N        -21.6010   12.5260  -17.9940 N.3   256  TYR256     -0.1227
     10  CA       -20.5350   11.7090  -17.3720 C.3   256  TYR256      0.1736
     11  C        -21.0580   10.2790  -17.1970 C.2   256  TYR256      0.2595
     12  O        -22.2370   10.0830  -16.9160 O.2   256  TYR256     -0.2718
     13  CB       -20.0110   12.3060  -16.0470 C.3   256  TYR256      0.0548
     14  CG       -18.6710   11.7130  -15.5940 C.ar  256  TYR256     -0.0200
     15  CD1      -17.4720   12.1030  -16.1760 C.ar  256  TYR256     -0.0009
     16  CD2      -18.6150   10.7480  -14.5950 C.ar  256  TYR256     -0.0009
     17  CE1      -16.2530   11.5470  -15.7700 C.ar  256  TYR256      0.0417
     18  CE2      -17.4030   10.1860  -14.1840 C.ar  256  TYR256      0.0417
     19  CZ       -16.2320   10.5790  -14.7700 C.ar  256  TYR256      0.1957
     20  OH       -15.0190   10.0190  -14.3870 O.3   256  TYR256     -0.2866
     21  N        -20.1770    9.3060  -17.4260 N.am  257  TYR257     -0.1962
     22  CA       -20.4610    7.8640  -17.4320 C.3   257  TYR257      0.1771
     23  C        -21.1330    7.3350  -18.7080 C.2   257  TYR257      0.2619
     24  O        -21.3120    6.1110  -18.8450 O.2   257  TYR257     -0.2715
     25  CB       -21.3000    7.4220  -16.2260 C.3   257  TYR257      0.0574
     26  CG       -20.6760    7.7380  -14.9030 C.ar  257  TYR257     -0.0198
     27  CD1      -19.5350    7.0780  -14.4740 C.ar  257  TYR257     -0.0009
     28  CD2      -21.2340    8.6940  -14.0630 C.ar  257  TYR257     -0.0009
     29  CE1      -18.9530    7.3690  -13.2620 C.ar  257  TYR257      0.0417
     30  CE2      -20.6650    8.9930  -12.8260 C.ar  257  TYR257      0.0417
     31  CZ       -19.5260    8.3250  -12.4350 C.ar  257  TYR257      0.1957
     32  OH       -18.9580    8.6310  -11.2310 O.3   257  TYR257     -0.2866
     33  N        -21.5000    8.2230  -19.6280 N.am  258  MET258     -0.1963
     34  CA       -22.2650    7.8300  -20.8130 C.3   258  MET258      0.1736
     35  C        -21.4520    7.5960  -22.0880 C.2   258  MET258      0.2616
     36  O        -22.0140    7.5620  -23.2010 O.2   258  MET258     -0.2715
     37  CB       -23.3540    8.8750  -21.0830 C.3   258  MET258      0.0427
     38  CG       -24.3540    9.0110  -19.9610 C.3   258  MET258      0.0599
     39  SD       -25.4690    7.6310  -19.8350 S.3   258  MET258     -0.1393
     40  CE       -26.7140    8.1330  -21.0760 C.3   258  MET258      0.0692
     41  N        -20.1350    7.4450  -21.9450 N.am  259  ARG259     -0.1964
     42  CA       -19.2720    7.1970  -23.0890 C.3   259  ARG259      0.1714
     43  C        -19.0320    5.6890  -23.2440 C.2   259  ARG259      0.2458
     44  O        -18.5930    5.0360  -22.2980 O.2   259  ARG259     -0.2730
     45  CB       -17.9290    7.9140  -22.8970 C.3   259  ARG259      0.0347
     46  CG       -18.0240    9.4160  -22.8120 C.3   259  ARG259      0.0492
     47  CD       -16.7300   10.0860  -22.4070 C.3   259  ARG259      0.2205
     48  NE       -15.7480   10.0190  -23.4800 N.pl3 259  ARG259     -0.0865
     49  CZ       -14.5090   10.4810  -23.3920 C.cat 259  ARG259      0.5346
     50  NH1      -14.0870   11.0520  -22.2690 N.pl3 259  ARG259      0.1354
     51  NH2      -13.6900   10.3700  -24.4310 N.pl3 259  ARG259      0.1354
     52  N        -19.3230    5.1160  -24.4060 N.am  260  PRO260     -0.2716
     53  CA       -19.0290    3.6920  -24.6030 C.3   260  PRO260      0.1536
     54  C        -17.5340    3.4720  -24.4520 C.2   260  PRO260      0.2599
     55  O        -16.7250    4.2970  -24.9040 O.2   260  PRO260     -0.2715
     56  CB       -19.4730    3.4230  -26.0380 C.3   260  PRO260      0.0310
     57  CG       -20.3760    4.5040  -26.3720 C.3   260  PRO260      0.0237
     58  CD       -19.9150    5.7270  -25.6090 C.3   260  PRO260      0.0939
     59  N        -17.1550    2.3850  -23.8000 N.am  261  GLY261     -0.1941
     60  CA       -15.7500    2.1190  -23.5720 C.3   261  GLY261      0.2014
     61  C        -15.5100    0.8350  -22.8200 C.2   261  GLY261      0.2639
     62  O        -16.0700   -0.2000  -23.1560 O.2   261  GLY261     -0.2714
     63  N        -14.7000    0.9080  -21.7710 N.am  262  PHE262     -0.1959
     64  CA       -14.3250   -0.2920  -21.0420 C.3   262  PHE262      0.1771
     65  C        -15.1480   -0.4890  -19.7720 C.2   262  PHE262      0.2619
     66  O        -15.9710    0.3670  -19.3890 O.2   262  PHE262     -0.2715
     67  CB       -12.8140   -0.2490  -20.7480 C.3   262  PHE262      0.0574
     68  CG       -12.1900   -1.6070  -20.5200 C.ar  262  PHE262     -0.0200
     69  CD1      -12.5660   -2.7080  -21.2730 C.ar  262  PHE262     -0.0042
     70  CD2      -11.2240   -1.7740  -19.5620 C.ar  262  PHE262     -0.0042
     71  CE1      -11.9940   -3.9360  -21.0440 C.ar  262  PHE262     -0.0003
     72  CE2      -10.6360   -3.0080  -19.3580 C.ar  262  PHE262     -0.0003
     73  CZ       -11.0270   -4.0770  -20.0860 C.ar  262  PHE262     -0.0000
     74  N        -14.9700   -1.6560  -19.1600 N.am  263  ALA263     -0.1963
     75  CA       -15.5900   -1.9950  -17.8970 C.3   263  ALA263      0.1728
     76  C        -15.3070   -0.9260  -16.8400 C.2   263  ALA263      0.2616
     77  O        -14.2630   -0.2630  -16.8750 O.2   263  ALA263     -0.2715
     78  CB       -15.0560   -3.3410  -17.4150 C.3   263  ALA263      0.0334
     79  N        -16.2340   -0.7610  -15.9080 N.am  264  PHE264     -0.1960
     80  CA       -15.9980    0.1030  -14.7560 C.3   264  PHE264      0.1771
     81  C        -15.2370   -0.7050  -13.7190 C.2   264  PHE264      0.2620
     82  O        -15.2790   -1.9510  -13.7010 O.2   264  PHE264     -0.2715
     83  CB       -17.2940    0.6930  -14.1700 C.3   264  PHE264      0.0574
     84  CG       -18.2810   -0.3360  -13.6470 C.ar  264  PHE264     -0.0200
     85  CD1      -18.1420   -0.9020  -12.3840 C.ar  264  PHE264     -0.0042
     86  CD2      -19.3790   -0.7020  -14.4160 C.ar  264  PHE264     -0.0042
     87  CE1      -19.0700   -1.8400  -11.9140 C.ar  264  PHE264     -0.0003
     88  CE2      -20.2970   -1.6300  -13.9610 C.ar  264  PHE264     -0.0003
     89  CZ       -20.1560   -2.1890  -12.7060 C.ar  264  PHE264     -0.0000
     90  N        -14.5520   -0.0010  -12.8360 N.am  265  GLY265     -0.1954
     91  CA       -13.7370   -0.6400  -11.8430 C.3   265  GLY265      0.1869
     92  C        -13.4510    0.3290  -10.7280 C.2   265  GLY265      0.2309
     93  O        -14.1940    1.2910  -10.5170 O.2   265  GLY265     -0.2863
     94  N        -12.2910    1.1430   -6.5450 N.3   267  SER267     -0.1202
     95  CA       -12.5290    0.7430   -5.1790 C.3   267  SER267      0.2020
     96  C        -13.9360    0.8980   -4.6650 C.2   267  SER267      0.2619
     97  O        -14.1880    0.5450   -3.5040 O.2   267  SER267     -0.2717
     98  CB       -11.6720    1.6240   -4.2880 C.3   267  SER267      0.2103
     99  OG       -11.8000    2.9820   -4.7140 O.3   267  SER267     -0.2182
    100  N        -14.8360    1.4560   -5.4730 N.am  268  CYS268     -0.1955
    101  CA       -16.1850    1.7410   -4.9910 C.3   268  CYS268      0.1843
    102  C        -17.3470    1.2620   -5.8600 C.2   268  CYS268      0.2625
    103  O        -18.2880    0.6760   -5.3220 O.2   268  CYS268     -0.2714
    104  CB       -16.3140    3.2370   -4.6940 C.3   268  CYS268      0.0997
    105  SG       -15.2660    3.7550   -3.3010 S.3   268  CYS268     -0.0797
    106  N        -17.3490    1.5010   -7.1700 N.am  269  LEU269     -0.1977
    107  CA       -18.5130    1.0410   -7.9440 C.3   269  LEU269      0.1596
    108  C        -18.7620   -0.4840   -7.8220 C.2   269  LEU269      0.2287
    109  O        -19.8810   -0.8880   -7.4980 O.2   269  LEU269     -0.2864
    110  CB       -18.4850    1.4810   -9.4020 C.3   269  LEU269      0.0297
    111  CG       -18.5820    2.9940   -9.6990 C.3   269  LEU269      0.0022
    112  CD1      -19.0360    3.1960  -11.1430 C.3   269  LEU269      0.0001
    113  CD2      -19.4570    3.7590   -8.7560 C.3   269  LEU269      0.0001
    114  N        -19.9430   -1.4850   -4.2310 N.3   272  ASP272     -0.1239
    115  CA       -21.2340   -0.9140   -3.8410 C.3   272  ASP272      0.1674
    116  C        -22.3760   -1.5690   -4.6280 C.2   272  ASP272      0.2266
    117  O        -23.4550   -1.8030   -4.0710 O.2   272  ASP272     -0.2867
    118  CB       -21.2330    0.6100   -3.9570 C.3   272  ASP272      0.1410
    119  CG       -20.2630    1.2710   -2.9770 C.2   272  ASP272      0.3668
    120  OD1      -19.7280    0.5840   -2.0660 O.co2 272  ASP272     -0.2456
    121  OD2      -19.9790    2.4860   -3.0360 O.co2 272  ASP272     -0.2456
    122  N         -7.0380    2.1330  -12.2630 N.3   323  PHE323     -0.1227
    123  CA        -8.3780    2.1470  -12.8520 C.3   323  PHE323      0.1736
    124  C         -8.7470    3.4290  -13.5930 C.2   323  PHE323      0.2595
    125  O         -9.6400    3.4050  -14.4340 O.2   323  PHE323     -0.2718
    126  CB        -9.4560    1.7410  -11.8410 C.3   323  PHE323      0.0547
    127  CG        -9.9840    2.8650  -10.9970 C.ar  323  PHE323     -0.0202
    128  CD1       -9.1870    3.4950  -10.0570 C.ar  323  PHE323     -0.0042
    129  CD2      -11.3030    3.2670  -11.1260 C.ar  323  PHE323     -0.0042
    130  CE1       -9.6960    4.5230   -9.2820 C.ar  323  PHE323     -0.0003
    131  CE2      -11.8150    4.2740  -10.3550 C.ar  323  PHE323     -0.0003
    132  CZ       -11.0070    4.9060   -9.4240 C.ar  323  PHE323     -0.0000
    133  N         -8.0600    4.5310  -13.2930 N.am  324  LYS324     -0.1980
    134  CA        -8.2700    5.7940  -14.0010 C.3   324  LYS324      0.1596
    135  C         -6.9560    6.5000  -14.1880 C.2   324  LYS324      0.2287
    136  O         -6.0080    6.2750  -13.4220 O.2   324  LYS324     -0.2864
    137  CB        -9.1670    6.7470  -13.2040 C.3   324  LYS324      0.0298
    138  CG       -10.6280    6.3770  -13.1530 C.3   324  LYS324      0.0038
    139  CD       -11.4090    7.2600  -12.1930 C.3   324  LYS324      0.0206
    140  CE       -11.4730    8.7220  -12.6230 C.3   324  LYS324      0.1093
    141  NZ       -12.2910    9.5380  -11.6720 N.3   324  LYS324     -0.1314
    142  N         -9.8920   -2.9090  -13.9450 N.3   334  PRO334     -0.2116
    143  CA       -10.1470   -3.8340  -15.0530 C.3   334  PRO334      0.1372
    144  C         -8.9140   -4.0380  -15.9340 C.2   334  PRO334      0.2244
    145  O         -8.8200   -5.0300  -16.6420 O.2   334  PRO334     -0.2868
    146  CB       -11.2710   -3.1500  -15.8320 C.3   334  PRO334      0.0268
    147  CG       -11.8040   -2.0900  -14.9440 C.3   334  PRO334      0.0207
    148  CD       -10.7140   -1.6910  -14.0370 C.3   334  PRO334      0.0892
@<TRIPOS>BOND
     1    57    56    1
     2    57    58    1
     3    56    53    1
     4    58    52    1
     5    55    54    2
     6    53    54    1
     7    53    52    1
     8    54    59   am
     9    51    49    1
    10    52    43   am
    11    59    60    1
    12    60    61    1
    13    48    49    2
    14    48    47    1
    15    49    50    1
    16    43    42    1
    17    43    44    2
    18    36    35    2
    19    62    61    2
    20    42    45    1
    21    42    41    1
    22    45    46    1
    23    61    63   am
    24    46    47    1
    25    35    41   am
    26    35    34    1
    27    63    64    1
    28    69    71   ar
    29    69    68   ar
    30    37    34    1
    31    37    38    1
    32    40    39    1
    33    71    73   ar
    34    64    67    1
    35    64    65    1
    36    34    33    1
    37    67    68    1
    38    68    70   ar
    39    73    72   ar
    40    38    39    1
    41    65    66    2
    42    65    74   am
    43    33    23   am
    44    70    72   ar
    45    74    75    1
    46    24    23    2
    47    23    22    1
    48     9    10    1
    49    75    78    1
    50    75    76    1
    51    22    21    1
    52    22    25    1
    53    21    11   am
    54    10    11    1
    55    10    13    1
    56    11    12    2
    57    77    76    2
    58    76    79   am
    59   145   144    2
    60    25    26    1
    61    15    17   ar
    62    15    14   ar
    63    13    14    1
    64   144   143    1
    65    79    80    1
    66   146   143    1
    67   146   147    1
    68    17    19   ar
    69    14    16   ar
    70   143   142    1
    71   147   148    1
    72    26    27   ar
    73    26    28   ar
    74    19    20    1
    75    19    18   ar
    76    80    83    1
    77    80    81    1
    78    16    18   ar
    79    27    29   ar
    80   125   124    2
    81    86    88   ar
    82    86    84   ar
    83   135   134    1
    84   135   136    2
    85    83    84    1
    86    28    30   ar
    87   148   142    1
    88   134   133    1
    89   134   137    1
    90    88    89   ar
    91    81    82    2
    92    81    90   am
    93     4     3    2
    94    84    85   ar
    95   124   133   am
    96   124   123    1
    97    29    31   ar
    98   137   138    1
    99   138   139    1
   100   123   122    1
   101   123   126    1
   102    90    91    1
   103    30    31   ar
   104    89    87   ar
   105     3     2    1
   106   140   139    1
   107   140   141    1
   108    31    32    1
   109    85    87   ar
   110     2     1    1
   111     2     5    1
   112    91    92    1
   113   126   127    1
   114     8     6    1
   115   112   111    1
   116   129   127   ar
   117   129   131   ar
   118     5     6    1
   119   127   128   ar
   120    92    93    2
   121     6     7    1
   122   131   132   ar
   123   128   130   ar
   124   111   110    1
   125   111   113    1
   126   132   130   ar
   127   110   107    1
   128   107   108    1
   129   107   106    1
   130   108   109    2
   131   106   102   am
   132    94    95    1
   133   102   103    2
   134   102   101    1
   135   100   101    1
   136   100    96   am
   137    95    96    1
   138    95    98    1
   139   101   104    1
   140    99    98    1
   141   104   105    1
   142    96    97    2
   143   116   117    2
   144   116   115    1
   145   114   115    1
   146   118   115    1
   147   118   119    1
   148   121   119   ar
   149   119   120   ar
