@<TRIPOS>MOLECULE
tmp/1mv8A00.pdb
 180 172 0 0 0
SMALL
GASTEIGER

@<TRIPOS>ATOM
      1  N        -47.8660    8.9510  -44.9410 N.3     6  PHE6       -0.1227
      2  CA       -48.3840    7.5920  -44.9830 C.3     6  PHE6        0.1736
      3  C        -48.5170    7.0620  -43.5660 C.2     6  PHE6        0.2596
      4  O        -47.5170    6.8770  -42.8580 O.2     6  PHE6       -0.2718
      5  CB       -47.4810    6.6930  -45.8310 C.3     6  PHE6        0.0547
      6  CG       -47.6420    6.9110  -47.3120 C.ar    6  PHE6       -0.0202
      7  CD1      -47.1580    8.0610  -47.9180 C.ar    6  PHE6       -0.0042
      8  CD2      -48.3060    5.9770  -48.0940 C.ar    6  PHE6       -0.0042
      9  CE1      -47.3180    8.2650  -49.2770 C.ar    6  PHE6       -0.0003
     10  CE2      -48.4660    6.1710  -49.4510 C.ar    6  PHE6       -0.0003
     11  CZ       -47.9750    7.3130  -50.0470 C.ar    6  PHE6       -0.0000
     12  N        -49.7590    6.8300  -43.1550 N.am    7  GLY7       -0.1957
     13  CA       -50.0670    6.3590  -41.8120 C.3     7  GLY7        0.1869
     14  C        -50.5470    7.5040  -40.9340 C.2     7  GLY7        0.2309
     15  O        -49.7590    8.3890  -40.5770 O.2     7  GLY7       -0.2863
     16  N        -51.7870    7.3890  -37.7150 N.3     9  GLY9       -0.1210
     17  CA       -51.9480    6.8660  -36.3730 C.3     9  GLY9        0.1956
     18  C        -51.5360    7.8650  -35.3170 C.2     9  GLY9        0.2612
     19  O        -51.6190    9.0690  -35.5250 O.2     9  GLY9       -0.2717
     20  N        -51.1160    7.3600  -34.1620 N.am   10  TYR10      -0.1962
     21  CA       -50.6670    8.2270  -33.0710 C.3    10  TYR10       0.1771
     22  C        -49.5600    9.2030  -33.4890 C.2    10  TYR10       0.2619
     23  O        -49.5590   10.3580  -33.0660 O.2    10  TYR10      -0.2715
     24  CB       -50.2600    7.3790  -31.8680 C.3    10  TYR10       0.0574
     25  CG       -51.4820    6.8540  -31.1530 C.ar   10  TYR10      -0.0198
     26  CD1      -52.1260    5.7040  -31.5830 C.ar   10  TYR10      -0.0009
     27  CD2      -52.0450    7.5570  -30.0940 C.ar   10  TYR10      -0.0009
     28  CE1      -53.2740    5.2380  -30.9460 C.ar   10  TYR10       0.0417
     29  CE2      -53.1840    7.0970  -29.4520 C.ar   10  TYR10       0.0417
     30  CZ       -53.7960    5.9400  -29.8870 C.ar   10  TYR10       0.1957
     31  OH       -54.9370    5.4640  -29.2530 O.3    10  TYR10      -0.2866
     32  N        -48.6380    8.7690  -34.3400 N.am   11  VAL11      -0.1963
     33  CA       -47.5990    9.6710  -34.8250 C.3    11  VAL11       0.1727
     34  C        -48.0640   10.4700  -36.0460 C.2    11  VAL11       0.2616
     35  O        -47.9840   11.7040  -36.0720 O.2    11  VAL11      -0.2715
     36  CB       -46.3060    8.9090  -35.1910 C.3    11  VAL11       0.0290
     37  CG1      -45.3220    9.8180  -35.9310 C.3    11  VAL11       0.0023
     38  CG2      -45.6620    8.3310  -33.9580 C.3    11  VAL11       0.0023
     39  N        -48.5570    9.7650  -37.0620 N.am   12  GLY12      -0.1955
     40  CA       -48.9030   10.3780  -38.3220 C.3    12  GLY12       0.1869
     41  C        -49.9920   11.4290  -38.2540 C.2    12  GLY12       0.2309
     42  O        -49.8840   12.4470  -38.9370 O.2    12  GLY12      -0.2863
     43  N        -52.4530    9.7800  -45.9650 N.3    29  VAL29      -0.1231
     44  CA       -52.7690    8.5150  -46.6300 C.3    29  VAL29       0.1692
     45  C        -52.8330    7.3850  -45.6050 C.2    29  VAL29       0.2592
     46  O        -51.9560    7.2600  -44.7520 O.2    29  VAL29      -0.2718
     47  CB       -51.7010    8.1500  -47.6790 C.3    29  VAL29       0.0266
     48  CG1      -52.0920    6.8670  -48.4290 C.3    29  VAL29       0.0020
     49  CG2      -51.4810    9.2920  -48.6530 C.3    29  VAL29       0.0020
     50  N        -53.8740    6.5590  -45.6830 N.am   30  ASP30      -0.1960
     51  CA       -53.9970    5.4210  -44.7870 C.3    30  ASP30       0.1840
     52  C        -54.8400    4.3760  -45.4810 C.2    30  ASP30       0.2622
     53  O        -55.6570    4.7140  -46.3330 O.2    30  ASP30      -0.2715
     54  CB       -54.6540    5.8280  -43.4620 C.3    30  ASP30       0.1450
     55  CG       -54.2270    4.9480  -42.3010 C.2    30  ASP30       0.3671
     56  OD1      -54.4900    3.7160  -42.3250 O.co2  30  ASP30      -0.2456
     57  OD2      -53.6050    5.4100  -41.3190 O.co2  30  ASP30      -0.2456
     58  N        -54.6260    3.1110  -45.1420 N.am   31  VAL31      -0.1963
     59  CA       -55.4420    2.0270  -45.6920 C.3    31  VAL31       0.1727
     60  C        -56.7870    1.9240  -44.9600 C.2    31  VAL31       0.2616
     61  O        -57.6960    1.2150  -45.4150 O.2    31  VAL31      -0.2715
     62  CB       -54.7240    0.6660  -45.5920 C.3    31  VAL31       0.0290
     63  CG1      -53.4710    0.6530  -46.4590 C.3    31  VAL31       0.0023
     64  CG2      -54.3880    0.3290  -44.1480 C.3    31  VAL31       0.0023
     65  N        -56.8990    2.6210  -43.8280 N.am   32  SER32      -0.1950
     66  CA       -58.1100    2.6290  -43.0060 C.3    32  SER32       0.1924
     67  C        -59.0870    3.7310  -43.4200 C.2    32  SER32       0.2314
     68  O        -58.8220    4.9150  -43.2140 O.2    32  SER32      -0.2863
     69  CB       -57.7400    2.8240  -41.5290 C.3    32  SER32       0.2116
     70  OG       -58.9000    3.0030  -40.7220 O.3    32  SER32      -0.2180
     71  N        -60.2050    5.9170  -40.3920 N.3    35  LYS35      -0.1245
     72  CA       -59.3300    7.0380  -40.0320 C.3    35  LYS35       0.1561
     73  C        -59.3990    8.1630  -41.0580 C.2    35  LYS35       0.2260
     74  O        -59.4160    9.3370  -40.6870 O.2    35  LYS35      -0.2867
     75  CB       -57.8740    6.5780  -39.8330 C.3    35  LYS35       0.0271
     76  CG       -57.7010    5.6380  -38.6560 C.3    35  LYS35       0.0035
     77  CD       -56.2640    5.1710  -38.4530 C.3    35  LYS35       0.0206
     78  CE       -56.2100    4.0780  -37.3940 C.3    35  LYS35       0.1093
     79  NZ       -54.8290    3.7330  -36.9680 N.3    35  LYS35      -0.1314
     80  N        -44.9740    6.8900  -41.8870 N.3    83  CYS83      -0.1221
     81  CA       -45.2990    6.8400  -40.4680 C.3    83  CYS83       0.1808
     82  C        -46.1650    5.6190  -40.1190 C.2    83  CYS83       0.2601
     83  O        -46.9890    5.6630  -39.2050 O.2    83  CYS83      -0.2717
     84  CB       -46.0480    8.1090  -40.0660 C.3    83  CYS83       0.0970
     85  SG       -45.1300    9.6640  -40.1810 S.3    83  CYS83      -0.0800
     86  N        -45.9880    4.5250  -40.8420 N.am   84  VAL84      -0.1965
     87  CA       -46.7740    3.3340  -40.5800 C.3    84  VAL84       0.1727
     88  C        -46.1680    2.5250  -39.4210 C.2    84  VAL84       0.2617
     89  O        -45.0520    2.7760  -38.9730 O.2    84  VAL84      -0.2715
     90  CB       -46.9320    2.4790  -41.8400 C.3    84  VAL84       0.0290
     91  CG1      -47.8000    1.3010  -41.5420 C.3    84  VAL84       0.0023
     92  CG2      -47.5640    3.2880  -42.9500 C.3    84  VAL84       0.0023
     93  N        -46.9200    1.5600  -38.9070 N.am   85  GLY85      -0.1940
     94  CA       -46.4590    0.7840  -37.7780 C.3    85  GLY85       0.2014
     95  C        -45.2590   -0.1040  -38.0450 C.2    85  GLY85       0.2639
     96  O        -45.0370   -0.5610  -39.1640 O.2    85  GLY85      -0.2714
     97  N        -44.4750   -0.3180  -36.9980 N.am   86  THR86      -0.1950
     98  CA       -43.3750   -1.2740  -37.0010 C.3    86  THR86       0.1897
     99  C        -43.5110   -2.0950  -35.7080 C.2    86  THR86       0.2313
    100  O        -42.6370   -2.0670  -34.8350 O.2    86  THR86      -0.2863
    101  CB       -42.0020   -0.5620  -37.1150 C.3    86  THR86       0.1794
    102  OG1      -41.9140    0.5160  -36.1750 O.3    86  THR86      -0.2208
    103  CG2      -41.8420    0.1010  -38.4760 C.3    86  THR86       0.0378
    104  N        -45.5780   -3.6020  -43.0320 N.3    98  TYR98      -0.1241
    105  CA       -46.2240   -2.3560  -43.4180 C.3    98  TYR98       0.1605
    106  C        -45.2560   -1.4530  -44.1680 C.2    98  TYR98       0.2264
    107  O        -45.6260   -0.8010  -45.1340 O.2    98  TYR98      -0.2867
    108  CB       -46.7850   -1.6350  -42.1900 C.3    98  TYR98       0.0534
    109  CG       -47.8190   -2.4220  -41.4210 C.ar   98  TYR98      -0.0201
    110  CD1      -49.0700   -2.6890  -41.9700 C.ar   98  TYR98      -0.0009
    111  CD2      -47.5570   -2.8830  -40.1340 C.ar   98  TYR98      -0.0009
    112  CE1      -50.0200   -3.4020  -41.2720 C.ar   98  TYR98       0.0417
    113  CE2      -48.5050   -3.5960  -39.4290 C.ar   98  TYR98       0.0417
    114  CZ       -49.7360   -3.8510  -40.0030 C.ar   98  TYR98       0.1957
    115  OH       -50.6930   -4.5610  -39.3090 O.3    98  TYR98      -0.2866
    116  N        -44.9890   -2.8260  -47.7800 N.3   101  THR101     -0.1203
    117  CA       -46.1480   -2.4920  -48.6020 C.3   101  THR101      0.1994
    118  C        -46.0950   -1.0340  -49.0620 C.2   101  THR101      0.2617
    119  O        -46.2870   -0.7480  -50.2440 O.2   101  THR101     -0.2717
    120  CB       -47.4550   -2.7580  -47.8330 C.3   101  THR101      0.1784
    121  OG1      -47.5740   -4.1580  -47.5460 O.3   101  THR101     -0.2211
    122  CG2      -48.6730   -2.4590  -48.6870 C.3   101  THR101      0.0376
    123  N        -45.8200   -0.1190  -48.1340 N.am  102  VAL102     -0.1979
    124  CA       -45.7740    1.3070  -48.4590 C.3   102  VAL102      0.1595
    125  C        -44.6890    1.6290  -49.4730 C.2   102  VAL102      0.2287
    126  O        -44.8840    2.4710  -50.3560 O.2   102  VAL102     -0.2864
    127  CB       -45.5550    2.1670  -47.1970 C.3   102  VAL102      0.0276
    128  CG1      -45.1950    3.6110  -47.5710 C.3   102  VAL102      0.0022
    129  CG2      -46.7870    2.1370  -46.3500 C.3   102  VAL102      0.0022
    130  N        -45.8870    0.6100  -52.9170 N.3   105  GLU105     -0.1245
    131  CA       -46.8780    1.5980  -53.3350 C.3   105  GLU105      0.1567
    132  C        -46.2080    2.8820  -53.8230 C.2   105  GLU105      0.2260
    133  O        -46.5390    3.3890  -54.8900 O.2   105  GLU105     -0.2867
    134  CB       -47.8510    1.8970  -52.1810 C.3   105  GLU105      0.0388
    135  CG       -48.8010    0.7400  -51.8940 C.3   105  GLU105      0.1160
    136  CD       -49.7230    0.9690  -50.7090 C.2   105  GLU105      0.3649
    137  OE1      -49.6190    2.0140  -50.0360 O.co2 105  GLU105     -0.2457
    138  OE2      -50.5750    0.0900  -50.4540 O.co2 105  GLU105     -0.2457
    139  N        -40.0920    8.1270  -41.0850 N.3   122  ARG122     -0.1231
    140  CA       -40.2050    8.5550  -39.6890 C.3   122  ARG122      0.1694
    141  C        -40.4100    7.3650  -38.7570 C.2   122  ARG122      0.2593
    142  O        -40.0730    7.4400  -37.5910 O.2   122  ARG122     -0.2718
    143  CB       -41.3870    9.4910  -39.4800 C.3   122  ARG122      0.0321
    144  CG       -41.4100   10.6490  -40.3900 C.3   122  ARG122      0.0489
    145  CD       -40.7860   11.8410  -39.8060 C.3   122  ARG122      0.2205
    146  NE       -41.5050   12.3680  -38.6590 N.pl3 122  ARG122     -0.0865
    147  CZ       -41.1370   13.4670  -38.0200 C.cat 122  ARG122      0.5346
    148  NH1      -40.0700   14.1330  -38.4440 N.pl3 122  ARG122      0.1354
    149  NH2      -41.8410   13.9350  -37.0050 N.pl3 122  ARG122      0.1354
    150  N        -41.0430    6.3060  -39.2660 N.am  123  SER123     -0.1938
    151  CA       -41.2120    5.0650  -38.5200 C.3   123  SER123      0.2055
    152  C        -39.8690    4.5790  -37.9900 C.2   123  SER123      0.2643
    153  O        -38.8480    4.6850  -38.6610 O.2   123  SER123     -0.2714
    154  CB       -41.7960    3.9700  -39.4230 C.3   123  SER123      0.2130
    155  OG       -43.0510    4.3150  -39.9880 O.3   123  SER123     -0.2179
    156  N        -39.8690    4.0520  -36.7770 N.am  124  THR124     -0.1950
    157  CA       -38.6680    3.4780  -36.2010 C.3   124  THR124      0.1897
    158  C        -38.3470    2.1530  -36.8840 C.2   124  THR124      0.2313
    159  O        -39.1630    1.2270  -36.8590 O.2   124  THR124     -0.2863
    160  CB       -38.8920    3.2650  -34.7180 C.3   124  THR124      0.1794
    161  OG1      -39.0480    4.5390  -34.0860 O.3   124  THR124     -0.2208
    162  CG2      -37.6710    2.6530  -34.0580 C.3   124  THR124      0.0378
    163  N        -38.8640   10.2550  -34.9640 N.3   157  GLU157     -0.1245
    164  CA       -39.6880   11.1400  -34.1500 C.3   157  GLU157      0.1567
    165  C        -39.4720   10.8000  -32.6880 C.2   157  GLU157      0.2260
    166  O        -39.2150    9.6340  -32.3300 O.2   157  GLU157     -0.2867
    167  CB       -41.1610   11.0210  -34.5200 C.3   157  GLU157      0.0388
    168  CG       -41.7060    9.5950  -34.4780 C.3   157  GLU157      0.1160
    169  CD       -42.0310    9.0990  -33.0830 C.2   157  GLU157      0.3649
    170  OE1      -42.3520    9.9230  -32.1940 O.co2 157  GLU157     -0.2457
    171  OE2      -41.9830    7.8630  -32.8590 O.co2 157  GLU157     -0.2457
    172  N        -46.9420   10.1470  -26.6520 N.3   161  GLU161     -0.1245
    173  CA       -48.3980   10.1680  -26.6470 C.3   161  GLU161      0.1567
    174  C        -48.8980   10.8800  -25.3810 C.2   161  GLU161      0.2260
    175  O        -48.3340   10.7220  -24.2980 O.2   161  GLU161     -0.2867
    176  CB       -48.9320    8.7410  -26.7690 C.3   161  GLU161      0.0388
    177  CG       -48.5690    8.1270  -28.0990 C.3   161  GLU161      0.1160
    178  CD       -49.0860    6.7300  -28.2950 C.2   161  GLU161      0.3649
    179  OE1      -49.9380    6.2760  -27.4970 O.co2 161  GLU161     -0.2457
    180  OE2      -48.6450    6.0980  -29.2730 O.co2 161  GLU161     -0.2457
@<TRIPOS>BOND
     1   133   132    2
     2   132   131    1
     3   131   130    1
     4   131   134    1
     5   134   135    1
     6   135   136    1
     7   136   138   ar
     8   136   137   ar
     9   126   125    2
    10   119   118    2
    11    11    10   ar
    12    11     9   ar
    13   125   124    1
    14    10     8   ar
    15     9     7   ar
    16   118   117    1
    17   118   123   am
    18   122   120    1
    19    49    47    1
    20   117   120    1
    21   117   116    1
    22   124   123    1
    23   124   127    1
    24    48    47    1
    25     8     6   ar
    26     7     6   ar
    27   120   121    1
    28    47    44    1
    29   128   127    1
    30     6     5    1
    31   127   129    1
    32    44    43    1
    33    44    45    1
    34    63    62    1
    35    53    52    2
    36     5     2    1
    37    59    62    1
    38    59    58    1
    39    59    60    1
    40    50    45   am
    41    50    51    1
    42    45    46    2
    43    62    64    1
    44    52    58   am
    45    52    51    1
    46    61    60    2
    47   107   106    2
    48     2     1    1
    49     2     3    1
    50    60    65   am
    51    51    54    1
    52   106   105    1
    53    65    66    1
    54     3    12   am
    55     3     4    2
    56    54    55    1
    57    67    68    2
    58    67    66    1
    59   105   104    1
    60   105   108    1
    61    12    13    1
    62    66    69    1
    63    92    90    1
    64    56    55   ar
    65    55    57   ar
    66   108   109    1
    67   110   109   ar
    68   110   112   ar
    69    80    81    1
    70    90    91    1
    71    90    87    1
    72    13    14    1
    73    69    70    1
    74   109   111   ar
    75   112   114   ar
    76   139   140    1
    77    73    74    2
    78    73    72    1
    79    14    15    2
    80    86    87    1
    81    86    82   am
    82    87    88    1
    83    81    82    1
    84    81    84    1
    85    71    72    1
    86   144   145    1
    87   144   143    1
    88    85    84    1
    89   111   113   ar
    90    82    83    2
    91    72    75    1
    92   114   113   ar
    93   114   115    1
    94   155   154    1
    95    75    76    1
    96   145   146    1
    97   140   143    1
    98   140   141    1
    99   154   151    1
   100    88    89    2
   101    88    93   am
   102   150   141   am
   103   150   151    1
   104    96    95    2
   105    42    41    2
   106    93    94    1
   107   141   142    2
   108   153   152    2
   109   146   147    2
   110    76    77    1
   111   151   152    1
   112   103   101    1
   113    77    78    1
   114   148   147    1
   115    40    41    1
   116    40    39    1
   117    95    94    1
   118    95    97   am
   119   147   149    1
   120   152   156   am
   121    16    17    1
   122    78    79    1
   123   101    98    1
   124   101   102    1
   125    39    34   am
   126    98    97    1
   127    98    99    1
   128   158   159    2
   129   158   157    1
   130   156   157    1
   131    17    18    1
   132   157   160    1
   133    35    34    2
   134    34    33    1
   135    37    36    1
   136    99   100    2
   137    19    18    2
   138    18    20   am
   139    36    33    1
   140    36    38    1
   141   163   164    1
   142    33    32    1
   143   160   161    1
   144   160   162    1
   145   167   168    1
   146   167   164    1
   147   168   169    1
   148    32    22   am
   149    20    21    1
   150   164   165    1
   151    22    21    1
   152    22    23    2
   153   169   171   ar
   154   169   170   ar
   155    21    24    1
   156   165   166    2
   157    24    25    1
   158    26    25   ar
   159    26    28   ar
   160    25    27   ar
   161    28    30   ar
   162    27    29   ar
   163    30    29   ar
   164    30    31    1
   165   180   178   ar
   166   178   177    1
   167   178   179   ar
   168   177   176    1
   169   176   173    1
   170   172   173    1
   171   173   174    1
   172   174   175    2
