@<TRIPOS>MOLECULE
tmp/1mv8A02.pdb
 109 103 0 0 0
SMALL
GASTEIGER

@<TRIPOS>ATOM
      1  N        -48.6380    8.7690  -34.3400 N.3    11  VAL11      -0.1245
      2  CA       -47.5990    9.6710  -34.8250 C.3    11  VAL11       0.1561
      3  C        -48.0640   10.4700  -36.0460 C.2    11  VAL11       0.2260
      4  O        -47.9840   11.7040  -36.0720 O.2    11  VAL11      -0.2867
      5  CB       -46.3060    8.9090  -35.1910 C.3    11  VAL11       0.0252
      6  CG1      -45.3220    9.8180  -35.9310 C.3    11  VAL11       0.0019
      7  CG2      -45.6620    8.3310  -33.9580 C.3    11  VAL11       0.0019
      8  N        -39.8690    4.0520  -36.7770 N.3   124  THR124     -0.1218
      9  CA       -38.6680    3.4780  -36.2010 C.3   124  THR124      0.1862
     10  C        -38.3470    2.1530  -36.8840 C.2   124  THR124      0.2287
     11  O        -39.1630    1.2270  -36.8590 O.2   124  THR124     -0.2866
     12  CB       -38.8920    3.2650  -34.7180 C.3   124  THR124      0.1770
     13  OG1      -39.0480    4.5390  -34.0860 O.3   124  THR124     -0.2211
     14  CG2      -37.6710    2.6530  -34.0580 C.3   124  THR124      0.0375
     15  N        -38.8640   10.2550  -34.9640 N.3   157  GLU157     -0.1231
     16  CA       -39.6880   11.1400  -34.1500 C.3   157  GLU157      0.1699
     17  C        -39.4720   10.8000  -32.6880 C.2   157  GLU157      0.2592
     18  O        -39.2150    9.6340  -32.3300 O.2   157  GLU157     -0.2718
     19  CB       -41.1610   11.0210  -34.5200 C.3   157  GLU157      0.0402
     20  CG       -41.7060    9.5950  -34.4780 C.3   157  GLU157      0.1161
     21  CD       -42.0310    9.0990  -33.0830 C.2   157  GLU157      0.3649
     22  OE1      -42.3520    9.9230  -32.1940 O.co2 157  GLU157     -0.2457
     23  OE2      -41.9830    7.8630  -32.8590 O.co2 157  GLU157     -0.2457
     24  N        -39.5760   11.8190  -31.8380 N.am  158  PHE158     -0.1962
     25  CA       -39.3590   11.6550  -30.4130 C.3   158  PHE158      0.1771
     26  C        -40.5940   12.0500  -29.6080 C.2   158  PHE158      0.2619
     27  O        -40.5240   12.3010  -28.3950 O.2   158  PHE158     -0.2715
     28  CB       -38.1270   12.4490  -29.9810 C.3   158  PHE158      0.0574
     29  CG       -36.8800   12.0770  -30.7460 C.ar  158  PHE158     -0.0200
     30  CD1      -36.2590   10.8580  -30.5330 C.ar  158  PHE158     -0.0042
     31  CD2      -36.3550   12.9290  -31.6990 C.ar  158  PHE158     -0.0042
     32  CE1      -35.1220   10.4990  -31.2550 C.ar  158  PHE158     -0.0003
     33  CE2      -35.2200   12.5730  -32.4190 C.ar  158  PHE158     -0.0003
     34  CZ       -34.6090   11.3460  -32.1800 C.ar  158  PHE158     -0.0000
     35  N        -41.7370   12.0570  -30.2780 N.am  159  LEU159     -0.1963
     36  CA       -42.9880   12.4370  -29.6390 C.3   159  LEU159      0.1728
     37  C        -43.4500   11.4250  -28.6150 C.2   159  LEU159      0.2616
     38  O        -43.2910   10.2130  -28.8080 O.2   159  LEU159     -0.2715
     39  CB       -44.1000   12.5510  -30.6790 C.3   159  LEU159      0.0311
     40  CG       -43.7880   13.3650  -31.9280 C.3   159  LEU159      0.0022
     41  CD1      -44.9120   13.2390  -32.9430 C.3   159  LEU159      0.0001
     42  CD2      -43.5130   14.8360  -31.5190 C.3   159  LEU159      0.0001
     43  N        -44.0520   11.9330  -27.5390 N.am  160  ARG160     -0.1963
     44  CA       -44.7170   11.1030  -26.5430 C.3   160  ARG160      0.1729
     45  C        -46.2310   11.2620  -26.6630 C.2   160  ARG160      0.2616
     46  O        -46.7460   12.3810  -26.7440 O.2   160  ARG160     -0.2715
     47  CB       -44.3230   11.5220  -25.1230 C.3   160  ARG160      0.0348
     48  CG       -42.8700   11.3410  -24.7760 C.3   160  ARG160      0.0492
     49  CD       -42.5050   12.0070  -23.4690 C.3   160  ARG160      0.2205
     50  NE       -42.7130   13.4500  -23.5770 N.pl3 160  ARG160     -0.0865
     51  CZ       -42.6720   14.2960  -22.5630 C.cat 160  ARG160      0.5346
     52  NH1      -42.4090   13.8580  -21.3440 N.pl3 160  ARG160      0.1354
     53  NH2      -42.8800   15.5970  -22.7720 N.pl3 160  ARG160      0.1354
     54  N        -46.9420   10.1470  -26.6520 N.am  161  GLU161     -0.1977
     55  CA       -48.3980   10.1680  -26.6470 C.3   161  GLU161      0.1602
     56  C        -48.8980   10.8800  -25.3810 C.2   161  GLU161      0.2287
     57  O        -48.3340   10.7220  -24.2980 O.2   161  GLU161     -0.2864
     58  CB       -48.9320    8.7410  -26.7690 C.3   161  GLU161      0.0415
     59  CG       -48.5690    8.1270  -28.0990 C.3   161  GLU161      0.1163
     60  CD       -49.0860    6.7300  -28.2950 C.2   161  GLU161      0.3649
     61  OE1      -49.9380    6.2760  -27.4970 O.co2 161  GLU161     -0.2457
     62  OE2      -48.6450    6.0980  -29.2730 O.co2 161  GLU161     -0.2457
     63  N        -32.3120    6.6120  -32.4950 N.3   210  LYS210     -0.1245
     64  CA       -33.7180    6.4360  -32.1140 C.3   210  LYS210      0.1561
     65  C        -33.8970    5.2520  -31.1720 C.2   210  LYS210      0.2260
     66  O        -34.5110    5.3830  -30.1100 O.2   210  LYS210     -0.2867
     67  CB       -34.6240    6.2680  -33.3360 C.3   210  LYS210      0.0271
     68  CG       -36.0950    6.0250  -33.0180 C.3   210  LYS210      0.0035
     69  CD       -36.7080    7.0560  -32.0620 C.3   210  LYS210      0.0206
     70  CE       -38.1700    6.7210  -31.7500 C.3   210  LYS210      0.1093
     71  NZ       -38.7480    7.5150  -30.6210 N.3   210  LYS210     -0.1314
     72  N        -35.0330    5.2600  -27.0090 N.3   214  ASN214     -0.1240
     73  CA       -36.1280    4.5090  -26.4060 C.3   214  ASN214      0.1653
     74  C        -35.6460    3.4740  -25.3760 C.2   214  ASN214      0.2266
     75  O        -36.2570    3.3110  -24.3220 O.2   214  ASN214     -0.2867
     76  CB       -37.0420    3.8880  -27.4660 C.3   214  ASN214      0.1155
     77  CG       -38.1840    4.8200  -27.8600 C.2   214  ASN214      0.2627
     78  OD1      -38.2240    5.9740  -27.4240 O.2   214  ASN214     -0.2716
     79  ND2      -39.1040    4.3370  -28.7020 N.am  214  ASN214     -0.0877
     80  N        -34.7750    5.2680  -22.2030 N.3   217  HIS217     -0.1241
     81  CA       -35.9710    5.6020  -21.4350 C.3   217  HIS217      0.1621
     82  C        -36.4380    4.3900  -20.6400 C.2   217  HIS217      0.2264
     83  O        -36.7320    4.4880  -19.4370 O.2   217  HIS217     -0.2867
     84  CB       -37.0700    6.1470  -22.3460 C.3   217  HIS217      0.0745
     85  CG       -36.6470    7.3500  -23.1330 C.ar  217  HIS217      0.0817
     86  ND1      -37.4110    7.8900  -24.1410 N.ar  217  HIS217     -0.2268
     87  CD2      -35.5200    8.1010  -23.0720 C.ar  217  HIS217      0.1154
     88  CE1      -36.7890    8.9390  -24.6500 C.ar  217  HIS217      0.1986
     89  NE2      -35.6360    9.0880  -24.0200 N.ar  217  HIS217     -0.2212
     90  N        -36.5560    3.9660  -16.3650 N.3   221  VAL221     -0.1245
     91  CA       -37.7200    3.4970  -15.6230 C.3   221  VAL221      0.1561
     92  C        -37.3840    2.2690  -14.7990 C.2   221  VAL221      0.2260
     93  O        -37.7410    2.1600  -13.6080 O.2   221  VAL221     -0.2867
     94  CB       -38.8800    3.1160  -16.5610 C.3   221  VAL221      0.0252
     95  CG1      -39.9720    2.4250  -15.7640 C.3   221  VAL221      0.0019
     96  CG2      -39.4210    4.3370  -17.2690 C.3   221  VAL221      0.0019
     97  N        -35.2020    3.1840  -11.7660 N.3   224  ALA224     -0.1231
     98  CA       -36.0160    3.8330  -10.7480 C.3   224  ALA224      0.1694
     99  C        -36.9110    2.8330  -10.0060 C.2   224  ALA224      0.2592
    100  O        -37.0580    2.8840   -8.7780 O.2   224  ALA224     -0.2718
    101  CB       -36.8350    4.9420  -11.3720 C.3   224  ALA224      0.0304
    102  N        -37.5270    1.9160  -10.7440 N.am  225  ASN225     -0.1974
    103  CA       -38.3730    0.8980  -10.1200 C.3   225  ASN225      0.1688
    104  C        -37.6010   -0.0600   -9.2180 C.2   225  ASN225      0.2292
    105  O        -38.0590   -0.3880   -8.1260 O.2   225  ASN225     -0.2864
    106  CB       -39.1090    0.0830  -11.1690 C.3   225  ASN225      0.1181
    107  CG       -40.1570    0.8800  -11.9180 C.2   225  ASN225      0.2629
    108  OD1      -40.5580    1.9760  -11.5090 O.2   225  ASN225     -0.2716
    109  ND2      -40.6210    0.3200  -13.0290 N.am  225  ASN225     -0.0877
@<TRIPOS>BOND
     1    10    11    2
     2    10     9    1
     3     8     9    1
     4     9    12    1
     5     4     3    2
     6     3     2    1
     7     6     5    1
     8     5     2    1
     9     5     7    1
    10    15    16    1
    11     2     1    1
    12    12    13    1
    13    12    14    1
    14    19    20    1
    15    19    16    1
    16    20    21    1
    17    16    17    1
    18    67    68    1
    19    67    64    1
    20    21    23   ar
    21    21    22   ar
    22    68    69    1
    23    41    40    1
    24    17    18    2
    25    17    24   am
    26    63    64    1
    27    33    34   ar
    28    33    31   ar
    29    34    32   ar
    30    64    65    1
    31    69    70    1
    32    40    42    1
    33    40    39    1
    34    24    25    1
    35    70    71    1
    36    31    29   ar
    37    32    30   ar
    38    65    66    2
    39    29    30   ar
    40    29    28    1
    41    39    36    1
    42    25    28    1
    43    25    26    1
    44    35    36    1
    45    35    26   am
    46    36    37    1
    47    26    27    2
    48    62    60   ar
    49    38    37    2
    50    79    77   am
    51    37    43   am
    52    60    59    1
    53    60    61   ar
    54    59    58    1
    55    77    76    1
    56    77    78    2
    57    43    44    1
    58    76    73    1
    59    72    73    1
    60    58    55    1
    61    46    45    2
    62    45    54   am
    63    45    44    1
    64    54    55    1
    65    55    56    1
    66    44    47    1
    67    73    74    1
    68    56    57    2
    69    74    75    2
    70    47    48    1
    71    48    49    1
    72    88    86   ar
    73    88    89   ar
    74    86    85   ar
    75    89    87   ar
    76    50    49    1
    77    50    51    2
    78    85    87   ar
    79    85    84    1
    80    53    51    1
    81    51    52    1
    82    84    81    1
    83    80    81    1
    84    81    82    1
    85    82    83    2
    86    96    94    1
    87    94    95    1
    88    94    91    1
    89    90    91    1
    90    91    92    1
    91    92    93    2
    92   109   107   am
    93   107   108    2
    94   107   106    1
    95    97    98    1
    96   101    98    1
    97   106   103    1
    98    98    99    1
    99   102   103    1
   100   102    99   am
   101   103   104    1
   102    99   100    2
   103   104   105    2
