@<TRIPOS>MOLECULE
tmp/1mv9A01.pdb
 211 200 0 0 0
SMALL
GASTEIGER

@<TRIPOS>ATOM
      1  N         63.3320   38.8500   35.7540 N.3    19  VAL19      -0.1245
      2  CA        63.8090   39.3070   34.4620 C.3    19  VAL19       0.1561
      3  C         63.2010   38.5050   33.3100 C.2    19  VAL19       0.2260
      4  O         62.7840   39.0770   32.3060 O.2    19  VAL19      -0.2867
      5  CB        65.3460   39.2460   34.3990 C.3    19  VAL19       0.0252
      6  CG1       65.8260   39.5140   32.9780 C.3    19  VAL19       0.0019
      7  CG2       65.9350   40.2790   35.3610 C.3    19  VAL19       0.0019
      8  N         59.7030   39.6150   32.8490 N.3    22  ILE22      -0.1231
      9  CA        59.6580   40.9540   32.2820 C.3    22  ILE22       0.1692
     10  C         59.9540   40.9050   30.7830 C.2    22  ILE22       0.2592
     11  O         59.2730   41.5620   29.9900 O.2    22  ILE22      -0.2718
     12  CB        60.6680   41.8900   32.9860 C.3    22  ILE22       0.0266
     13  CG1       60.2060   42.1540   34.4270 C.3    22  ILE22       0.0019
     14  CG2       60.7880   43.1910   32.2190 C.3    22  ILE22       0.0020
     15  CD1       61.1600   43.0140   35.2440 C.3    22  ILE22       0.0001
     16  N         60.9670   40.1310   30.3950 N.am   23  CYS23      -0.1970
     17  CA        61.3270   40.0040   28.9910 C.3    23  CYS23       0.1712
     18  C         60.1980   39.3450   28.2200 C.2    23  CYS23       0.2296
     19  O         59.8930   39.7310   27.0950 O.2    23  CYS23      -0.2864
     20  CB        62.6010   39.1780   28.8310 C.3    23  CYS23       0.0983
     21  SG        64.1060   40.0780   29.2560 S.3    23  CYS23      -0.0798
     22  N         57.0080   39.4260   28.9260 N.3    25  ALA25      -0.1231
     23  CA        55.9570   40.4340   28.7810 C.3    25  ALA25       0.1694
     24  C         56.3080   41.5250   27.7600 C.2    25  ALA25       0.2591
     25  O         55.4310   42.0420   27.0550 O.2    25  ALA25      -0.2718
     26  CB        55.6610   41.0630   30.1360 C.3    25  ALA25       0.0304
     27  N         57.5870   41.8840   27.6840 N.am   26  ALA26      -0.1980
     28  CA        58.0280   42.8990   26.7370 C.3    26  ALA26       0.1597
     29  C         57.7940   42.4170   25.3030 C.2    26  ALA26       0.2287
     30  O         57.3140   43.1650   24.4580 O.2    26  ALA26      -0.2864
     31  CB        59.5090   43.2120   26.9520 C.3    26  ALA26       0.0319
     32  N         54.0950   42.6290   24.5910 N.3    29  GLN29      -0.1245
     33  CA        53.6470   43.9970   24.3970 C.3    29  GLN29       0.1566
     34  C         54.1270   44.6700   23.1150 C.2    29  GLN29       0.2260
     35  O         53.5280   45.6540   22.6780 O.2    29  GLN29      -0.2867
     36  CB        54.0270   44.8470   25.6070 C.3    29  GLN29       0.0367
     37  CG        53.2190   44.5060   26.8450 C.3    29  GLN29       0.0905
     38  CD        51.7370   44.3930   26.5370 C.2    29  GLN29       0.2608
     39  OE1       51.2270   43.3020   26.2870 O.2    29  GLN29      -0.2717
     40  NE2       51.0430   45.5250   26.5290 N.am   29  GLN29      -0.0878
     41  N         60.3360   52.0910   20.9780 N.3    59  TRP59      -0.1227
     42  CA        59.6750   50.9980   21.6770 C.3    59  TRP59       0.1737
     43  C         59.9830   50.8710   23.1710 C.2    59  TRP59       0.2595
     44  O         59.0650   50.7180   23.9630 O.2    59  TRP59      -0.2718
     45  CB        59.9250   49.6420   20.9760 C.3    59  TRP59       0.0564
     46  CG        61.3050   49.0940   21.1240 C.ar   59  TRP59       0.0003
     47  CD1       62.3880   49.3740   20.3450 C.ar   59  TRP59       0.0946
     48  CD2       61.7770   48.2460   22.1780 C.ar   59  TRP59       0.0152
     49  NE1       63.5130   48.7590   20.8530 N.ar   59  TRP59      -0.2442
     50  CE2       63.1630   48.0600   21.9800 C.ar   59  TRP59       0.0810
     51  CE3       61.1620   47.6330   23.2800 C.ar   59  TRP59       0.0012
     52  CZ2       63.9500   47.2860   22.8420 C.ar   59  TRP59       0.0191
     53  CZ3       61.9420   46.8670   24.1390 C.ar   59  TRP59       0.0001
     54  CH2       63.3230   46.7010   23.9140 C.ar   59  TRP59       0.0015
     55  N         61.2480   50.9410   23.5750 N.am   60  ASN60      -0.1974
     56  CA        61.5490   50.7760   24.9910 C.3    60  ASN60       0.1688
     57  C         60.9490   51.8660   25.8680 C.2    60  ASN60       0.2292
     58  O         60.3840   51.5620   26.9170 O.2    60  ASN60      -0.2864
     59  CB        63.0640   50.6320   25.2320 C.3    60  ASN60       0.1181
     60  CG        63.8770   51.6700   24.5080 C.2    60  ASN60       0.2629
     61  OD1       63.7770   51.8150   23.2910 O.2    60  ASN60      -0.2716
     62  ND2       64.7080   52.3930   25.2490 N.am   60  ASN60      -0.0877
     63  N         57.1390   51.3410   25.9490 N.3    63  LEU63      -0.1231
     64  CA        56.7190   50.2640   26.8300 C.3    63  LEU63       0.1693
     65  C         56.9120   50.6350   28.2980 C.2    63  LEU63       0.2591
     66  O         56.1130   50.2420   29.1450 O.2    63  LEU63      -0.2718
     67  CB        57.4880   48.9790   26.5230 C.3    63  LEU63       0.0284
     68  CG        57.2330   48.2920   25.1810 C.3    63  LEU63       0.0019
     69  CD1       57.8380   46.8950   25.2540 C.3    63  LEU63       0.0001
     70  CD2       55.7360   48.1990   24.8800 C.3    63  LEU63       0.0001
     71  N         57.9750   51.3830   28.5980 N.am   64  ILE64      -0.1980
     72  CA        58.2340   51.7960   29.9710 C.3    64  ILE64       0.1595
     73  C         57.1710   52.7800   30.4560 C.2    64  ILE64       0.2287
     74  O         56.7050   52.6970   31.6000 O.2    64  ILE64      -0.2864
     75  CB        59.6400   52.4070   30.1060 C.3    64  ILE64       0.0276
     76  CG1       60.6810   51.2900   29.9330 C.3    64  ILE64       0.0022
     77  CG2       59.7910   53.0850   31.4660 C.3    64  ILE64       0.0022
     78  CD1       62.1000   51.7780   29.6590 C.3    64  ILE64       0.0001
     79  N         54.1420   52.8780   29.4620 N.3    66  SER66      -0.1202
     80  CA        52.9340   52.0840   29.6610 C.3    66  SER66       0.2020
     81  C         52.8750   51.3040   30.9650 C.2    66  SER66       0.2618
     82  O         51.9050   51.4310   31.7070 O.2    66  SER66      -0.2717
     83  CB        52.7290   51.1120   28.4980 C.3    66  SER66       0.2103
     84  OG        52.3750   51.8150   27.3320 O.3    66  SER66      -0.2182
     85  N         53.8890   50.4930   31.2530 N.am   67  PHE67      -0.1975
     86  CA        53.8350   49.7220   32.4910 C.3    67  PHE67       0.1639
     87  C         53.9810   50.5950   33.7300 C.2    67  PHE67       0.2290
     88  O         53.4890   50.2450   34.8040 O.2    67  PHE67      -0.2864
     89  CB        54.8600   48.5700   32.4760 C.3    67  PHE67       0.0560
     90  CG        56.2800   48.9730   32.7930 C.ar   67  PHE67      -0.0200
     91  CD1       56.6360   49.4080   34.0680 C.ar   67  PHE67      -0.0042
     92  CD2       57.2730   48.8530   31.8310 C.ar   67  PHE67      -0.0042
     93  CE1       57.9610   49.7150   34.3760 C.ar   67  PHE67      -0.0003
     94  CE2       58.6020   49.1560   32.1310 C.ar   67  PHE67      -0.0003
     95  CZ        58.9430   49.5870   33.4050 C.ar   67  PHE67      -0.0000
     96  N         50.5270   51.9630   34.3340 N.3    70  ARG70      -0.1245
     97  CA        49.6650   50.8570   34.7380 C.3    70  ARG70       0.1563
     98  C         49.9040   50.4860   36.2110 C.2    70  ARG70       0.2260
     99  O         49.0230   49.9230   36.8700 O.2    70  ARG70      -0.2867
    100  CB        49.9490   49.6350   33.8630 C.3    70  ARG70       0.0307
    101  CG        48.9920   48.4660   34.0730 C.3    70  ARG70       0.0489
    102  CD        49.4860   47.1960   33.3830 C.3    70  ARG70       0.2205
    103  NE        49.7650   47.4070   31.9630 N.pl3  70  ARG70      -0.0865
    104  CZ        50.9320   47.1510   31.3770 C.cat  70  ARG70       0.5346
    105  NH1       51.9460   46.6670   32.0890 N.pl3  70  ARG70       0.1354
    106  NH2       51.0910   47.3920   30.0780 N.pl3  70  ARG70       0.1354
    107  N         55.6160   46.9480   40.2010 N.3    78  ILE78      -0.1245
    108  CA        55.0440   47.2400   38.8960 C.3    78  ILE78       0.1561
    109  C         54.1330   46.1040   38.4560 C.2    78  ILE78       0.2260
    110  O         54.3170   44.9550   38.8540 O.2    78  ILE78      -0.2867
    111  CB        56.1410   47.4460   37.8100 C.3    78  ILE78       0.0252
    112  CG1       56.9340   46.1600   37.6080 C.3    78  ILE78       0.0019
    113  CG2       57.0750   48.5820   38.2110 C.3    78  ILE78       0.0019
    114  CD1       57.8360   46.2050   36.3800 C.3    78  ILE78       0.0001
    115  N         52.8720   43.9280   35.3600 N.3    80  LEU80      -0.1231
    116  CA        53.1850   43.5520   33.9870 C.3    80  LEU80       0.1693
    117  C         51.8840   43.3250   33.2210 C.2    80  LEU80       0.2591
    118  O         50.8340   43.0890   33.8240 O.2    80  LEU80      -0.2718
    119  CB        54.0470   42.2840   33.9560 C.3    80  LEU80       0.0284
    120  CG        55.4060   42.3350   34.6730 C.3    80  LEU80       0.0019
    121  CD1       56.1560   41.0280   34.4420 C.3    80  LEU80       0.0001
    122  CD2       56.2270   43.5080   34.1600 C.3    80  LEU80       0.0001
    123  N         51.9550   43.4030   31.8950 N.am   81  ALA81      -0.1980
    124  CA        50.7810   43.2220   31.0400 C.3    81  ALA81       0.1597
    125  C         50.2020   41.8180   31.1470 C.2    81  ALA81       0.2287
    126  O         49.0520   41.5770   30.7730 O.2    81  ALA81      -0.2864
    127  CB        51.1450   43.5200   29.5940 C.3    81  ALA81       0.0319
    128  N         68.7150   43.6160   39.6230 N.3    96  VAL96      -0.1245
    129  CA        68.3350   44.7770   38.8210 C.3    96  VAL96       0.1561
    130  C         67.5840   45.7950   39.6890 C.2    96  VAL96       0.2260
    131  O         66.7270   46.5370   39.2070 O.2    96  VAL96      -0.2867
    132  CB        67.4560   44.3710   37.6000 C.3    96  VAL96       0.0252
    133  CG1       68.2660   43.4960   36.6420 C.3    96  VAL96       0.0019
    134  CG2       66.2130   43.6120   38.0630 C.3    96  VAL96       0.0019
    135  N         67.9460   49.9440   38.6730 N.3    99  ILE99      -0.1231
    136  CA        67.1100   50.4380   37.5890 C.3    99  ILE99       0.1692
    137  C         65.6230   50.3230   37.9600 C.2    99  ILE99       0.2592
    138  O         64.8230   51.1830   37.5920 O.2    99  ILE99      -0.2718
    139  CB        67.4260   49.7130   36.2330 C.3    99  ILE99       0.0266
    140  CG1       66.5970   50.3350   35.1020 C.3    99  ILE99       0.0019
    141  CG2       67.1670   48.2180   36.3340 C.3    99  ILE99       0.0020
    142  CD1       66.7950   51.8250   34.9400 C.3    99  ILE99       0.0001
    143  N         65.2550   49.2850   38.7120 N.am  100  PHE100     -0.1976
    144  CA        63.8590   49.1190   39.1180 C.3   100  PHE100      0.1639
    145  C         63.4420   50.3110   39.9930 C.2   100  PHE100      0.2290
    146  O         62.3520   50.8640   39.8300 O.2   100  PHE100     -0.2864
    147  CB        63.6770   47.8090   39.9010 C.3   100  PHE100      0.0560
    148  CG        62.2430   47.3500   39.9930 C.ar  100  PHE100     -0.0200
    149  CD1       61.6480   46.6710   38.9320 C.ar  100  PHE100     -0.0042
    150  CD2       61.4850   47.6040   41.1360 C.ar  100  PHE100     -0.0042
    151  CE1       60.3110   46.2480   39.0080 C.ar  100  PHE100     -0.0003
    152  CE2       60.1520   47.1900   41.2250 C.ar  100  PHE100     -0.0003
    153  CZ        59.5640   46.5100   40.1580 C.ar  100  PHE100     -0.0000
    154  N         62.7560   53.4870   38.0720 N.3   103  VAL103     -0.1245
    155  CA        61.4200   53.4490   37.4810 C.3   103  VAL103      0.1561
    156  C         60.3720   53.8690   38.5150 C.2   103  VAL103      0.2260
    157  O         59.5230   54.7270   38.2520 O.2   103  VAL103     -0.2867
    158  CB        61.0720   52.0360   36.9620 C.3   103  VAL103      0.0252
    159  CG1       59.5790   51.9490   36.6390 C.3   103  VAL103      0.0019
    160  CG2       61.8910   51.7270   35.7100 C.3   103  VAL103      0.0019
    161  N         67.6490   50.5050   30.5660 N.3   186  CYS186     -0.1221
    162  CA        66.9500   49.2280   30.4410 C.3   186  CYS186      0.1808
    163  C         67.4770   48.4980   29.2090 C.2   186  CYS186      0.2601
    164  O         67.6410   47.2700   29.2240 O.2   186  CYS186     -0.2717
    165  CB        65.4290   49.4380   30.3270 C.3   186  CYS186      0.0970
    166  SG        64.6100   49.8500   31.9020 S.3   186  CYS186     -0.0800
    167  N         67.7470   49.2450   28.1420 N.am  187  LEU187     -0.1979
    168  CA        68.2710   48.6400   26.9210 C.3   187  LEU187      0.1596
    169  C         69.6460   48.0150   27.1640 C.2   187  LEU187      0.2287
    170  O         69.9310   46.9230   26.6680 O.2   187  LEU187     -0.2864
    171  CB        68.3600   49.6750   25.8010 C.3   187  LEU187      0.0297
    172  CG        67.3940   49.4980   24.6280 C.3   187  LEU187      0.0022
    173  CD1       67.7770   50.4670   23.5160 C.3   187  LEU187      0.0001
    174  CD2       67.4470   48.0620   24.1120 C.3   187  LEU187      0.0001
    175  N         70.7330   46.7960   29.9230 N.3   189  HIS189     -0.1226
    176  CA        70.4850   45.5630   30.6660 C.3   189  HIS189      0.1752
    177  C         70.0730   44.4410   29.7140 C.2   189  HIS189      0.2595
    178  O         70.6000   43.3270   29.7960 O.2   189  HIS189     -0.2718
    179  CB        69.3860   45.7770   31.7140 C.3   189  HIS189      0.0759
    180  CG        69.8670   46.4540   32.9590 C.ar  189  HIS189      0.0818
    181  ND1       70.5820   45.7940   33.9350 N.ar  189  HIS189     -0.2268
    182  CD2       69.7640   47.7380   33.3730 C.ar  189  HIS189      0.1154
    183  CE1       70.8980   46.6420   34.8970 C.ar  189  HIS189      0.1986
    184  NE2       70.4140   47.8300   34.5800 N.ar  189  HIS189     -0.2212
    185  N         69.1360   44.7370   28.8150 N.am  190  LEU190     -0.1980
    186  CA        68.6600   43.7410   27.8510 C.3   190  LEU190      0.1596
    187  C         69.8150   43.1870   27.0270 C.2   190  LEU190      0.2287
    188  O         69.9240   41.9770   26.8440 O.2   190  LEU190     -0.2864
    189  CB        67.6230   44.3430   26.9010 C.3   190  LEU190      0.0297
    190  CG        66.4040   43.4690   26.5630 C.3   190  LEU190      0.0022
    191  CD1       65.7430   43.9960   25.3110 C.3   190  LEU190      0.0001
    192  CD2       66.7980   42.0160   26.3730 C.3   190  LEU190      0.0001
    193  N         71.7380   40.7550   29.0630 N.3   193  PHE193     -0.1241
    194  CA        71.0360   39.4790   29.2640 C.3   193  PHE193      0.1605
    195  C         71.2430   38.6330   28.0130 C.2   193  PHE193      0.2264
    196  O         71.4420   37.4190   28.0940 O.2   193  PHE193     -0.2867
    197  CB        69.5250   39.6870   29.4630 C.3   193  PHE193      0.0534
    198  CG        69.1630   40.5600   30.6410 C.ar  193  PHE193     -0.0203
    199  CD1       67.9830   41.2940   30.6230 C.ar  193  PHE193     -0.0042
    200  CD2       69.9910   40.6520   31.7580 C.ar  193  PHE193     -0.0042
    201  CE1       67.6270   42.1150   31.6970 C.ar  193  PHE193     -0.0003
    202  CE2       69.6470   41.4680   32.8390 C.ar  193  PHE193     -0.0003
    203  CZ        68.4630   42.2020   32.8070 C.ar  193  PHE193     -0.0000
    204  N         61.3470   40.7510   20.6160 N.3   205  LEU205     -0.1245
    205  CA        62.2750   41.4740   21.4700 C.3   205  LEU205      0.1561
    206  C         63.6760   41.3370   20.8720 C.2   205  LEU205      0.2260
    207  O         64.4220   42.3120   20.7830 O.2   205  LEU205     -0.2867
    208  CB        62.2400   40.8950   22.8920 C.3   205  LEU205      0.0270
    209  CG        63.0840   41.6330   23.9390 C.3   205  LEU205      0.0019
    210  CD1       62.6280   43.1020   24.0330 C.3   205  LEU205      0.0001
    211  CD2       62.9470   40.9350   25.2870 C.3   205  LEU205      0.0001
@<TRIPOS>BOND
     1    47    49   ar
     2    47    46   ar
     3   204   205    1
     4   207   206    2
     5    49    50   ar
     6   206   205    1
     7    45    46    1
     8    45    42    1
     9    41    42    1
    10    46    48   ar
    11   205   208    1
    12    42    43    1
    13    50    48   ar
    14    50    52   ar
    15    48    51   ar
    16    35    34    2
    17    52    54   ar
    18   208   209    1
    19    34    33    1
    20    43    55   am
    21    43    44    2
    22    51    53   ar
    23    61    60    2
    24   173   172    1
    25    55    56    1
    26    54    53   ar
    27   209   210    1
    28   209   211    1
    29   174   172    1
    30    33    32    1
    31    33    36    1
    32    30    29    2
    33    60    59    1
    34    60    62   am
    35   172   171    1
    36    70    68    1
    37    56    59    1
    38    56    57    1
    39    68    69    1
    40    68    67    1
    41    29    28    1
    42   191   190    1
    43    36    37    1
    44   171   168    1
    45    57    58    2
    46    63    64    1
    47    39    38    2
    48   192   190    1
    49    67    64    1
    50    40    38   am
    51    38    37    1
    52   190   189    1
    53   170   169    2
    54    28    31    1
    55    28    27    1
    56    64    65    1
    57   188   187    2
    58   189   186    1
    59   168   169    1
    60   168   167    1
    61   187   186    1
    62    25    24    2
    63    19    18    2
    64    84    83    1
    65    27    24   am
    66    24    23    1
    67   186   185    1
    68   195   196    2
    69   195   194    1
    70   167   163   am
    71    18    17    1
    72    65    71   am
    73    65    66    2
    74    83    80    1
    75    71    72    1
    76    23    22    1
    77    23    26    1
    78   185   177   am
    79    20    17    1
    80    20    21    1
    81    17    16    1
    82   193   194    1
    83   163   164    2
    84   163   162    1
    85   194   197    1
    86    79    80    1
    87   197   198    1
    88   127   124    1
    89    78    76    1
    90    80    81    1
    91   177   178    2
    92   177   176    1
    93   175   176    1
    94    76    75    1
    95    72    75    1
    96    72    73    1
    97    11    10    2
    98   106   104    1
    99    75    77    1
   100   165   162    1
   101   165   166    1
   102    16    10   am
   103   162   161    1
   104    73    74    2
   105   199   198   ar
   106   199   201   ar
   107   198   200   ar
   108   176   179    1
   109   126   125    2
   110    10     9    1
   111    81    85   am
   112    81    82    2
   113   124   125    1
   114   124   123    1
   115    85    86    1
   116   104   103    2
   117   104   105    1
   118   201   203   ar
   119   179   180    1
   120   200   202   ar
   121    92    94   ar
   122    92    90   ar
   123   123   117   am
   124   103   102    1
   125    94    95   ar
   126    14    12    1
   127     9     8    1
   128     9    12    1
   129     4     3    2
   130    89    86    1
   131    89    90    1
   132    86    87    1
   133    90    91   ar
   134   203   202   ar
   135   180   182   ar
   136   180   181   ar
   137     6     5    1
   138    12    13    1
   139   117   118    2
   140   117   116    1
   141     3     2    1
   142   182   184   ar
   143   102   101    1
   144    95    93   ar
   145    87    88    2
   146   100   101    1
   147   100    97    1
   148   181   183   ar
   149   119   116    1
   150   119   120    1
   151   116   115    1
   152    91    93   ar
   153   122   120    1
   154    96    97    1
   155     5     2    1
   156     5     7    1
   157    13    15    1
   158   121   120    1
   159     2     1    1
   160   184   183   ar
   161    97    98    1
   162   142   140    1
   163   140   139    1
   164   160   158    1
   165    98    99    2
   166   139   141    1
   167   139   136    1
   168   114   112    1
   169   159   158    1
   170   133   132    1
   171   158   155    1
   172   155   154    1
   173   155   156    1
   174   136   137    1
   175   136   135    1
   176   138   137    2
   177   132   134    1
   178   132   129    1
   179   112   111    1
   180   111   113    1
   181   111   108    1
   182   137   143   am
   183   157   156    2
   184   109   110    2
   185   109   108    1
   186   143   144    1
   187   129   128    1
   188   129   130    1
   189   108   107    1
   190   149   151   ar
   191   149   148   ar
   192   151   153   ar
   193   144   147    1
   194   144   145    1
   195   131   130    2
   196   146   145    2
   197   147   148    1
   198   148   150   ar
   199   153   152   ar
   200   150   152   ar
