@<TRIPOS>MOLECULE
tmp/1mvnA00.pdb
 120 114 0 0 0
SMALL
GASTEIGER

@<TRIPOS>ATOM
      1  N         60.3720   17.1050  -18.9550 N.3    12  SER12      -0.1202
      2  CA        61.5690   16.4420  -18.4730 C.3    12  SER12       0.2020
      3  C         62.0100   15.4620  -19.5530 C.2    12  SER12       0.2619
      4  O         61.1800   14.9110  -20.2800 O.2    12  SER12      -0.2717
      5  CB        61.2770   15.7020  -17.1690 C.3    12  SER12       0.2103
      6  OG        62.4330   14.9980  -16.7250 O.3    12  SER12      -0.2182
      7  N         63.3180   15.2780  -19.6730 N.am   13  VAL13      -0.1965
      8  CA        63.8530   14.3500  -20.6520 C.3    13  VAL13       0.1727
      9  C         63.2200   12.9640  -20.3850 C.2    13  VAL13       0.2616
     10  O         62.9640   12.1710  -21.3060 O.2    13  VAL13      -0.2715
     11  CB        65.4180   14.3300  -20.5660 C.3    13  VAL13       0.0290
     12  CG1       65.8650   13.9070  -19.1870 C.3    13  VAL13       0.0023
     13  CG2       66.0100   13.4300  -21.6470 C.3    13  VAL13       0.0023
     14  N         62.9050   12.6970  -19.1210 N.am   14  ALA14      -0.1977
     15  CA        62.2710   11.4340  -18.7800 C.3    14  ALA14       0.1597
     16  C         60.9750   11.2090  -19.5780 C.2    14  ALA14       0.2287
     17  O         60.4700   10.0770  -19.6530 O.2    14  ALA14      -0.2864
     18  CB        61.9740   11.3760  -17.2720 C.3    14  ALA14       0.0319
     19  N         60.5340   10.6970  -22.4100 N.3    16  ILE16      -0.1231
     20  CA        60.7070    9.7040  -23.4570 C.3    16  ILE16       0.1692
     21  C         60.0570    8.3530  -23.0650 C.2    16  ILE16       0.2591
     22  O         59.7190    7.5540  -23.9340 O.2    16  ILE16      -0.2718
     23  CB        62.2140    9.5190  -23.7890 C.3    16  ILE16       0.0266
     24  CG1       62.3610    8.6760  -25.0590 C.3    16  ILE16       0.0019
     25  CG2       62.9640    8.8830  -22.6010 C.3    16  ILE16       0.0020
     26  CD1       63.7990    8.5380  -25.5510 C.3    16  ILE16       0.0001
     27  N         59.8530    8.1140  -21.7690 N.am   17  LYS17      -0.1980
     28  CA        59.2350    6.8720  -21.3050 C.3    17  LYS17       0.1596
     29  C         57.7330    7.0210  -21.0810 C.2    17  LYS17       0.2287
     30  O         57.0820    6.1530  -20.4760 O.2    17  LYS17      -0.2864
     31  CB        59.8840    6.4200  -19.9920 C.3    17  LYS17       0.0298
     32  CG        61.3480    6.0570  -20.1710 C.3    17  LYS17       0.0038
     33  CD        62.1470    6.0870  -18.8790 C.3    17  LYS17       0.0206
     34  CE        61.9210    4.8730  -18.0070 C.3    17  LYS17       0.1093
     35  NZ        62.9590    4.8340  -16.9260 N.3    17  LYS17      -0.1314
     36  N         61.0610   14.5110  -12.0680 N.3   123  ALA123     -0.1231
     37  CA        62.2150   14.0950  -12.8550 C.3   123  ALA123      0.1694
     38  C         63.0120   15.3390  -13.2220 C.2   123  ALA123      0.2592
     39  O         62.4870   16.2770  -13.8220 O.2   123  ALA123     -0.2718
     40  CB        61.7500   13.3460  -14.1020 C.3   123  ALA123      0.0304
     41  N         64.2760   15.3380  -12.8220 N.am  124  MET124     -0.1965
     42  CA        65.1800   16.4450  -13.0840 C.3   124  MET124      0.1736
     43  C         66.5670   16.0110  -12.6640 C.2   124  MET124      0.2616
     44  O         66.7260   14.9830  -12.0100 O.2   124  MET124     -0.2715
     45  CB        64.7850   17.6740  -12.2580 C.3   124  MET124      0.0427
     46  CG        64.9110   17.4780  -10.7520 C.3   124  MET124      0.0599
     47  SD        63.9900   18.7360   -9.8050 S.3   124  MET124     -0.1393
     48  CE        62.3580   18.2000  -10.1520 C.3   124  MET124      0.0692
     49  N         67.5590   16.8150  -13.0280 N.am  125  ASN125     -0.1972
     50  CA        68.9420   16.5700  -12.6630 C.3   125  ASN125      0.1688
     51  C         69.0630   16.6670  -11.1440 C.2   125  ASN125      0.2292
     52  O         68.2510   17.3290  -10.4840 O.2   125  ASN125     -0.2864
     53  CB        69.8560   17.6330  -13.2840 C.3   125  ASN125      0.1181
     54  CG        71.2550   17.6270  -12.6730 C.2   125  ASN125      0.2629
     55  OD1       71.5170   18.2960  -11.6670 O.2   125  ASN125     -0.2716
     56  ND2       72.1530   16.8620  -13.2710 N.am  125  ASN125     -0.0877
     57  N         69.2750   20.1910   -9.5970 N.3   128  MET128     -0.1245
     58  CA        67.9550   20.8110   -9.5860 C.3   128  MET128      0.1570
     59  C         67.1300   20.1310   -8.5240 C.2   128  MET128      0.2261
     60  O         66.3370   20.7750   -7.8430 O.2   128  MET128     -0.2867
     61  CB        67.2590   20.6370  -10.9260 C.3   128  MET128      0.0387
     62  CG        67.9810   21.3350  -12.0510 C.3   128  MET128      0.0595
     63  SD        67.1650   21.0280  -13.5730 S.3   128  MET128     -0.1393
     64  CE        65.7960   22.0990  -13.4660 C.3   128  MET128      0.0692
     65  N         69.4000    6.8810  -10.6350 N.3   154  LYS154     -0.1231
     66  CA        69.8110    6.2330  -11.8740 C.3   154  LYS154      0.1693
     67  C         70.8990    7.0540  -12.5510 C.2   154  LYS154      0.2592
     68  O         71.5090    7.9230  -11.9300 O.2   154  LYS154     -0.2718
     69  CB        68.6280    6.0930  -12.8320 C.3   154  LYS154      0.0285
     70  CG        67.7960    4.8380  -12.6480 C.3   154  LYS154      0.0035
     71  CD        66.6960    4.7640  -13.7060 C.3   154  LYS154      0.0206
     72  CE        65.9100    3.4670  -13.6100 C.3   154  LYS154      0.1093
     73  NZ        64.8070    3.4620  -14.5980 N.3   154  LYS154     -0.1314
     74  N         71.1420    6.7620  -13.8250 N.am  155  ARG155     -0.1966
     75  CA        72.1360    7.4790  -14.6130 C.3   155  ARG155      0.1729
     76  C         71.3810    8.5680  -15.3760 C.2   155  ARG155      0.2616
     77  O         70.6760    8.2840  -16.3490 O.2   155  ARG155     -0.2715
     78  CB        72.8300    6.5270  -15.5970 C.3   155  ARG155      0.0348
     79  CG        73.3960    5.2610  -14.9540 C.3   155  ARG155      0.0492
     80  CD        73.9700    4.2750  -15.9800 C.3   155  ARG155      0.2205
     81  NE        74.2820    2.9760  -15.3730 N.pl3 155  ARG155     -0.0865
     82  CZ        74.5730    1.8700  -16.0560 C.cat 155  ARG155      0.5346
     83  NH1       74.8390    0.7410  -15.4080 N.pl3 155  ARG155      0.1354
     84  NH2       74.5990    1.8910  -17.3850 N.pl3 155  ARG155      0.1354
     85  N         71.5270    9.8100  -14.9160 N.am  156  LEU156     -0.1963
     86  CA        70.8610   10.9640  -15.5190 C.3   156  LEU156      0.1728
     87  C         71.2800   11.2310  -16.9620 C.2   156  LEU156      0.2616
     88  O         72.3610   10.8290  -17.3890 O.2   156  LEU156     -0.2715
     89  CB        71.1410   12.2140  -14.6880 C.3   156  LEU156      0.0311
     90  CG        70.9550   12.0550  -13.1850 C.3   156  LEU156      0.0022
     91  CD1       71.1310   13.4180  -12.5340 C.3   156  LEU156      0.0001
     92  CD2       69.5690   11.4770  -12.8870 C.3   156  LEU156      0.0001
     93  N         70.4200   11.9270  -17.7030 N.am  157  ALA157     -0.1963
     94  CA        70.6960   12.2610  -19.0980 C.3   157  ALA157      0.1728
     95  C         71.9610   13.1160  -19.1950 C.2   157  ALA157      0.2616
     96  O         72.5430   13.2620  -20.2710 O.2   157  ALA157     -0.2715
     97  CB        69.5050   13.0060  -19.7040 C.3   157  ALA157      0.0334
     98  N         72.3750   13.6700  -18.0570 N.am  158  SER158     -0.1950
     99  CA        73.5620   14.5190  -17.9680 C.3   158  SER158      0.1924
    100  C         74.8630   13.7370  -17.7200 C.2   158  SER158      0.2314
    101  O         75.8870   14.3160  -17.3440 O.2   158  SER158     -0.2863
    102  CB        73.3620   15.5650  -16.8640 C.3   158  SER158      0.2116
    103  OG        72.7960   14.9890  -15.6970 O.3   158  SER158     -0.2180
    104  N         67.1860   11.9340   -8.8010 N.3   164  GLY164     -0.1210
    105  CA        66.5190   12.8020   -9.7580 C.3   164  GLY164      0.1956
    106  C         65.8630   12.0990  -10.9310 C.2   164  GLY164      0.2612
    107  O         65.0140   12.6820  -11.6050 O.2   164  GLY164     -0.2717
    108  N         66.2490   10.8550  -11.1950 N.am  165  ALA165     -0.1965
    109  CA        65.6380   10.1140  -12.2960 C.3   165  ALA165      0.1728
    110  C         64.1940    9.8440  -11.9190 C.2   165  ALA165      0.2616
    111  O         63.8700    9.6700  -10.7400 O.2   165  ALA165     -0.2715
    112  CB        66.3700    8.8100  -12.5350 C.3   165  ALA165      0.0334
    113  N         63.3240    9.8050  -12.9130 N.am  166  MET166     -0.1977
    114  CA        61.9310    9.5530  -12.6240 C.3   166  MET166      0.1605
    115  C         61.7190    8.1380  -12.0900 C.2   166  MET166      0.2287
    116  O         62.4160    7.2140  -12.4850 O.2   166  MET166     -0.2864
    117  CB        61.0680    9.7170  -13.8710 C.3   166  MET166      0.0413
    118  CG        59.5890    9.5470  -13.5760 C.3   166  MET166      0.0598
    119  SD        58.5650    9.8550  -15.0300 S.3   166  MET166     -0.1393
    120  CE        58.5510    8.2660  -15.7550 C.3   166  MET166      0.0692
@<TRIPOS>BOND
     1    26    24    1
     2    24    23    1
     3    22    21    2
     4    23    20    1
     5    23    25    1
     6    20    21    1
     7    20    19    1
     8    21    27   am
     9    27    28    1
    10    13    11    1
    11    10     9    2
    12    28    29    1
    13    28    31    1
    14    29    30    2
    15     8    11    1
    16     8     9    1
    17     8     7    1
    18    11    12    1
    19     9    14   am
    20     4     3    2
    21    96    95    2
    22    32    31    1
    23    32    33    1
    24    97    94    1
    25     7     3   am
    26    17    16    2
    27    16    15    1
    28     3     2    1
    29    95    94    1
    30    95    98   am
    31    14    15    1
    32    94    93    1
    33     1     2    1
    34    33    34    1
    35    15    18    1
    36     2     5    1
    37    98    99    1
    38    34    35    1
    39    99   100    1
    40    99   102    1
    41   100   101    2
    42    93    87   am
    43    88    87    2
    44    84    82    1
    45     5     6    1
    46    87    86    1
    47   102   103    1
    48    77    76    2
    49    82    83    1
    50    82    81    2
    51    80    81    1
    52    80    79    1
    53   120   119    1
    54    78    79    1
    55    78    75    1
    56    86    85    1
    57    86    89    1
    58    76    85   am
    59    76    75    1
    60   119   118    1
    61    89    90    1
    62    75    74    1
    63    73    72    1
    64    40    37    1
    65   117   118    1
    66   117   114    1
    67    74    67   am
    68    39    38    2
    69    71    72    1
    70    71    70    1
    71    63    64    1
    72    63    62    1
    73    53    54    1
    74    53    50    1
    75    56    54   am
    76    38    37    1
    77    38    41   am
    78    90    92    1
    79    90    91    1
    80    42    41    1
    81    42    43    1
    82    42    45    1
    83    49    43   am
    84    49    50    1
    85   113   114    1
    86   113   110   am
    87    37    36    1
    88    69    70    1
    89    69    66    1
    90    54    55    2
    91    43    44    2
    92    50    51    1
    93   114   115    1
    94    67    68    2
    95    67    66    1
    96   112   109    1
    97   116   115    2
    98   109   110    1
    99   109   108    1
   100    45    46    1
   101    62    61    1
   102   110   111    2
   103    66    65    1
   104   107   106    2
   105   108   106   am
   106    51    52    2
   107   106   105    1
   108    61    58    1
   109    46    47    1
   110    48    47    1
   111   105   104    1
   112    57    58    1
   113    58    59    1
   114    59    60    2
