@<TRIPOS>MOLECULE
tmp/1mvtA00.pdb
 188 183 0 0 0
SMALL
GASTEIGER

@<TRIPOS>ATOM
      1  N          2.1300   37.7080    3.5030 N.3     7  ILE7       -0.1231
      2  CA         2.0730   36.6660    2.4690 C.3     7  ILE7        0.1692
      3  C          0.5840   36.3490    2.2440 C.2     7  ILE7        0.2592
      4  O         -0.2810   36.0310    3.1130 O.2     7  ILE7       -0.2718
      5  CB         3.0130   35.4330    2.7590 C.3     7  ILE7        0.0266
      6  CG1        3.1820   34.5100    1.5210 C.3     7  ILE7        0.0019
      7  CG2        2.4760   34.7070    4.0140 C.3     7  ILE7        0.0020
      8  CD1        4.2440   33.3820    1.6160 C.3     7  ILE7        0.0001
      9  N          0.2200   36.2680    0.9840 N.am    8  VAL8       -0.1966
     10  CA        -1.1130   36.0050    0.4250 C.3     8  VAL8        0.1727
     11  C         -1.2060   35.3320   -0.9150 C.2     8  VAL8        0.2616
     12  O         -0.2800   35.5710   -1.7030 O.2     8  VAL8       -0.2715
     13  CB        -1.8380   37.3830    0.4000 C.3     8  VAL8        0.0290
     14  CG1       -1.3290   38.3440   -0.6120 C.3     8  VAL8        0.0023
     15  CG2       -3.3360   37.1200    0.1950 C.3     8  VAL8        0.0023
     16  N         -2.1680   34.4880   -1.1520 N.am    9  ALA9       -0.1977
     17  CA        -2.4570   33.8670   -2.4270 C.3     9  ALA9        0.1597
     18  C         -3.8360   34.4570   -2.8700 C.2     9  ALA9        0.2287
     19  O         -4.7620   34.3590   -2.0610 O.2     9  ALA9       -0.2864
     20  CB        -2.5020   32.3490   -2.3980 C.3     9  ALA9        0.0319
     21  N        -12.5280   27.6480    3.6630 N.3    21  ASP21      -0.1225
     22  CA       -11.5290   26.9910    2.8380 C.3    21  ASP21       0.1805
     23  C        -10.9950   27.8870    1.7310 C.2    21  ASP21       0.2594
     24  O        -11.4760   29.0330    1.6510 O.2    21  ASP21      -0.2718
     25  CB       -12.1410   25.7120    2.2950 C.3    21  ASP21       0.1424
     26  CG       -11.0430   24.7230    1.9610 C.2    21  ASP21       0.3668
     27  OD1       -9.8290   24.7950    2.2340 O.co2  21  ASP21      -0.2456
     28  OD2      -11.4150   23.7710    1.2430 O.co2  21  ASP21      -0.2456
     29  N        -10.1050   27.4480    0.8610 N.am   22  LEU22      -0.2033
     30  CA        -9.5970   28.2220   -0.2730 C.3    22  LEU22       0.1282
     31  C        -10.6340   28.2820   -1.3810 C.3    22  LEU22       0.2036
     32  O        -11.2710   27.2390   -1.5160 O.3    22  LEU22      -0.2185
     33  CB        -8.4040   27.4340   -0.8890 C.3    22  LEU22       0.0244
     34  CG        -7.0750   27.6170   -0.1680 C.3    22  LEU22       0.0018
     35  CD1       -7.1390   28.4950    1.0430 C.3    22  LEU22       0.0001
     36  CD2       -6.6640   26.1950    0.1150 C.3    22  LEU22       0.0001
     37  N         -9.9880   28.0130   -4.4350 N.3    24  TRP24      -0.1241
     38  CA        -9.4760   27.0550   -5.4440 C.3    24  TRP24       0.1605
     39  C         -9.1500   25.7220   -4.8210 C.2    24  TRP24       0.2264
     40  O         -9.0950   25.5300   -3.5640 O.2    24  TRP24      -0.2867
     41  CB        -8.1890   27.6420   -6.1420 C.3    24  TRP24       0.0550
     42  CG        -7.2430   28.2430   -5.1210 C.ar   24  TRP24       0.0003
     43  CD1       -6.2620   27.6290   -4.3750 C.ar   24  TRP24       0.0946
     44  CD2       -7.2110   29.6380   -4.6710 C.ar   24  TRP24       0.0152
     45  NE1       -5.6770   28.4570   -3.4720 N.ar   24  TRP24      -0.2442
     46  CE2       -6.1550   29.7360   -3.7200 C.ar   24  TRP24       0.0810
     47  CE3       -7.8690   30.7780   -5.0690 C.ar   24  TRP24       0.0012
     48  CZ2       -5.8240   30.9150   -3.1310 C.ar   24  TRP24       0.0191
     49  CZ3       -7.5760   31.9960   -4.5220 C.ar   24  TRP24       0.0001
     50  CH2       -6.5830   32.0430   -3.4960 C.ar   24  TRP24       0.0015
     51  N         -6.8380   22.4930   -4.0580 N.2    26  PRO26      -0.2637
     52  CA        -5.5270   22.5300   -3.4180 C.3    26  PRO26       0.1582
     53  C         -4.3670   22.5470   -4.4120 C.3    26  PRO26       0.2107
     54  O         -4.4080   21.6390   -5.2840 O.3    26  PRO26      -0.2179
     55  CB        -5.5690   21.3520   -2.4820 C.2    26  PRO26       0.0019
     56  CG        -6.8000   20.5680   -2.7240 C.2    26  PRO26       0.0176
     57  CD        -7.6420   21.3040   -3.7230 C.2    26  PRO26       0.0933
     58  N          2.0650   25.4750   -4.1720 N.3    30  GLU30      -0.1231
     59  CA         1.7860   26.8340   -3.6370 C.3    30  GLU30       0.1699
     60  C          1.8590   26.7370   -2.1000 C.2    30  GLU30       0.2592
     61  O          2.5220   27.5170   -1.4380 O.2    30  GLU30      -0.2718
     62  CB         0.4130   27.2990   -4.0310 C.3    30  GLU30       0.0402
     63  CG         0.2550   28.8330   -4.0650 C.3    30  GLU30       0.1161
     64  CD         0.3970   29.6470   -2.8160 C.2    30  GLU30       0.3649
     65  OE1        1.1090   30.6320   -2.7370 O.co2  30  GLU30      -0.2457
     66  OE2       -0.3340   29.1580   -1.9010 O.co2  30  GLU30      -0.2457
     67  N          1.2330   25.7020   -1.5980 N.am   31  PHE31      -0.1976
     68  CA         1.2450   25.3120   -0.2010 C.3    31  PHE31       0.1639
     69  C          2.7110   25.2270    0.3010 C.2    31  PHE31       0.2290
     70  O          3.1420   25.7410    1.3400 O.2    31  PHE31      -0.2864
     71  CB         0.5810   23.9940    0.1540 C.3    31  PHE31       0.0560
     72  CG        -0.9000   24.0160    0.2770 C.ar   31  PHE31      -0.0200
     73  CD1       -1.5290   25.2160    0.6790 C.ar   31  PHE31      -0.0042
     74  CD2       -1.7080   22.9370   -0.0140 C.ar   31  PHE31      -0.0042
     75  CE1       -2.9070   25.3200    0.8150 C.ar   31  PHE31      -0.0003
     76  CE2       -3.1080   23.0140    0.1100 C.ar   31  PHE31      -0.0003
     77  CZ        -3.6990   24.2190    0.4990 C.ar   31  PHE31      -0.0000
     78  N          5.3280   26.5570   -1.0260 N.3    33  TYR33      -0.1227
     79  CA         6.0870   27.8050   -1.1150 C.3    33  TYR33       0.1736
     80  C          5.6590   28.5680    0.1220 C.2    33  TYR33       0.2595
     81  O          6.4520   29.2950    0.6920 O.2    33  TYR33      -0.2718
     82  CB         5.7480   28.5860   -2.4290 C.3    33  TYR33       0.0548
     83  CG         5.7990   30.0650   -2.4510 C.ar   33  TYR33      -0.0200
     84  CD1        4.8240   31.0360   -2.0900 C.ar   33  TYR33      -0.0009
     85  CD2        7.1150   30.4860   -2.7440 C.ar   33  TYR33      -0.0009
     86  CE1        5.1820   32.4280   -2.1300 C.ar   33  TYR33       0.0417
     87  CE2        7.4470   31.8020   -2.8120 C.ar   33  TYR33       0.0417
     88  CZ         6.4810   32.7360   -2.4920 C.ar   33  TYR33       0.1957
     89  OH         7.1610   33.9500   -2.5930 O.3    33  TYR33      -0.2866
     90  N          4.3810   28.5610    0.5010 N.am   34  PHE34      -0.1962
     91  CA         3.9690   29.2840    1.7040 C.3    34  PHE34       0.1771
     92  C          4.7370   28.6790    2.8950 C.2    34  PHE34       0.2619
     93  O          5.1770   29.4790    3.7640 O.2    34  PHE34      -0.2715
     94  CB         2.4370   29.2030    1.9190 C.3    34  PHE34       0.0574
     95  CG         1.9570   29.5450    3.2610 C.ar   34  PHE34      -0.0200
     96  CD1        1.7960   30.8750    3.6840 C.ar   34  PHE34      -0.0042
     97  CD2        1.7540   28.5340    4.2220 C.ar   34  PHE34      -0.0042
     98  CE1        1.3910   31.2110    4.9590 C.ar   34  PHE34      -0.0003
     99  CE2        1.4000   28.8530    5.5660 C.ar   34  PHE34      -0.0003
    100  CZ         1.2250   30.2070    5.8700 C.ar   34  PHE34      -0.0000
    101  N          4.8140   27.3820    3.0420 N.am   35  GLN35      -0.1977
    102  CA         5.4400   26.7590    4.2230 C.3    35  GLN35       0.1601
    103  C          6.9130   27.1750    4.3320 C.2    35  GLN35       0.2287
    104  O          7.4000   27.4990    5.3940 O.2    35  GLN35      -0.2864
    105  CB         5.3770   25.2470    4.3200 C.3    35  GLN35       0.0394
    106  CG         3.9960   24.6150    4.3360 C.3    35  GLN35       0.0908
    107  CD         3.3820   24.6680    5.7390 C.2    35  GLN35       0.2608
    108  OE1        2.6980   23.7120    6.1830 O.2    35  GLN35      -0.2717
    109  NE2        3.5630   25.8120    6.3790 N.am   35  GLN35      -0.0878
    110  N         -8.4930   32.9680    9.7430 N.3    56  THR56      -0.1218
    111  CA        -7.4020   32.2990    8.9930 C.3    56  THR56       0.1862
    112  C         -6.9310   31.0550    9.7920 C.2    56  THR56       0.2287
    113  O         -6.6710   30.0160    9.2310 O.2    56  THR56      -0.2866
    114  CB        -6.2030   33.2920    8.7330 C.3    56  THR56       0.1770
    115  OG1       -6.8080   34.3890    8.0620 O.3    56  THR56      -0.2211
    116  CG2       -5.0080   32.7390    7.9510 C.3    56  THR56       0.0375
    117  N         -9.1700   28.2020    9.2890 N.3    59  SER59      -0.1202
    118  CA        -9.2420   27.7140    7.8710 C.3    59  SER59       0.2020
    119  C         -8.1860   26.6940    7.5650 C.2    59  SER59       0.2619
    120  O         -8.1300   25.9480    6.5650 O.2    59  SER59      -0.2717
    121  CB        -9.1960   28.8910    6.9030 C.3    59  SER59       0.2103
    122  OG        -7.8430   29.1710    6.6900 O.3    59  SER59      -0.2182
    123  N         -7.2260   26.5620    8.4610 N.am   60  ILE60      -0.1966
    124  CA        -6.1340   25.6240    8.4090 C.3    60  ILE60       0.1712
    125  C         -6.6720   24.3380    9.0320 C.2    60  ILE60       0.2458
    126  O         -7.0440   24.3800   10.2180 O.2    60  ILE60      -0.2730
    127  CB        -4.8490   26.1590    9.1580 C.3    60  ILE60       0.0289
    128  CG1       -4.3900   27.5490    8.5960 C.3    60  ILE60       0.0022
    129  CG2       -3.6440   25.1840    8.9930 C.3    60  ILE60       0.0023
    130  CD1       -3.5360   28.3840    9.5660 C.3    60  ILE60       0.0001
    131  N         -6.4710   23.1990    8.3650 N.am   61  PRO61      -0.2727
    132  CA        -6.8660   21.8950    8.9330 C.3    61  PRO61       0.1402
    133  C         -6.1500   21.6140   10.2280 C.2    61  PRO61       0.2269
    134  O         -4.9420   21.8140   10.3670 O.2    61  PRO61      -0.2865
    135  CB        -6.5900   20.8560    7.8620 C.3    61  PRO61       0.0296
    136  CG        -6.3620   21.6660    6.6190 C.3    61  PRO61       0.0237
    137  CD        -6.0210   23.1070    7.0010 C.3    61  PRO61       0.0939
    138  N         -4.9940   19.2930   11.3840 N.3    63  LYS63      -0.1231
    139  CA        -3.8190   18.4290   11.2200 C.3    63  LYS63       0.1693
    140  C         -2.5880   19.2800   10.9370 C.2    63  LYS63       0.2592
    141  O         -1.4660   18.8160   11.1910 O.2    63  LYS63      -0.2718
    142  CB        -4.0400   17.3010   10.2610 C.3    63  LYS63       0.0285
    143  CG        -4.3850   17.4390    8.8110 C.3    63  LYS63       0.0035
    144  CD        -3.2280   17.6360    7.8620 C.3    63  LYS63       0.0206
    145  CE        -3.7050   17.5160    6.4070 C.3    63  LYS63       0.1093
    146  NZ        -5.1790   17.8440    6.3990 N.3    63  LYS63      -0.1314
    147  N         -2.7910   20.5110   10.5510 N.am   64  ASN64      -0.1974
    148  CA        -1.7290   21.4490   10.2120 C.3    64  ASN64       0.1688
    149  C         -1.5580   22.6060   11.1780 C.2    64  ASN64       0.2292
    150  O         -0.8180   23.4950   10.8200 O.2    64  ASN64      -0.2864
    151  CB        -1.9050   22.0050    8.8180 C.3    64  ASN64       0.1181
    152  CG        -1.9620   21.1780    7.5710 C.2    64  ASN64       0.2629
    153  OD1       -3.0140   20.6580    7.1250 O.2    64  ASN64      -0.2716
    154  ND2       -0.7350   21.1350    7.0160 N.am   64  ASN64      -0.0877
    155  N          1.2950   25.7140   13.1540 N.3    67  LEU67      -0.1245
    156  CA         2.2790   25.7490   12.0710 C.3    67  LEU67       0.1561
    157  C          3.6460   25.4490   12.7220 C.2    67  LEU67       0.2260
    158  O          4.2390   26.3160   13.3750 O.2    67  LEU67      -0.2867
    159  CB         2.1850   27.0660   11.3100 C.3    67  LEU67       0.0270
    160  CG         0.9120   27.3520   10.4870 C.3    67  LEU67       0.0019
    161  CD1        1.0890   28.6680    9.7540 C.3    67  LEU67       0.0001
    162  CD2        0.8290   26.3070    9.3540 C.3    67  LEU67       0.0001
    163  N         -0.0780   36.1690    7.8790 N.3   115  VAL115     -0.1301
    164  CA        -0.7110   35.1860    6.9790 C.3   115  VAL115      0.1246
    165  C         -2.1760   35.3660    6.7070 C.3   115  VAL115      0.2009
    166  O         -2.7210   34.5900    5.8360 O.3   115  VAL115     -0.2188
    167  CB        -0.1450   33.8200    7.3410 C.3   115  VAL115      0.0202
    168  CG1        1.4060   33.8130    7.4750 C.3   115  VAL115      0.0016
    169  CG2       -0.6900   33.1310    8.5300 C.3   115  VAL115      0.0016
    170  N         -4.4520   42.1860    7.0910 N.3   121  TYR121     -0.1298
    171  CA        -3.7570   42.6540    5.9100 C.3   121  TYR121      0.1290
    172  C         -4.0210   44.1650    5.7530 C.3   121  TYR121      0.2013
    173  O         -2.9840   44.7850    5.4950 O.3   121  TYR121     -0.2188
    174  CB        -4.1610   41.8820    4.6860 C.3   121  TYR121      0.0480
    175  CG        -3.7420   40.4580    4.4480 C.ar  121  TYR121     -0.0204
    176  CD1       -4.6790   39.6200    3.8650 C.ar  121  TYR121     -0.0009
    177  CD2       -2.4950   39.9490    4.7960 C.ar  121  TYR121     -0.0009
    178  CE1       -4.3650   38.3090    3.5200 C.ar  121  TYR121      0.0417
    179  CE2       -2.1230   38.6400    4.4600 C.ar  121  TYR121      0.0417
    180  CZ        -3.1170   37.8380    3.8720 C.ar  121  TYR121      0.1957
    181  OH        -2.8250   36.5790    3.5250 O.3   121  TYR121     -0.2866
    182  N          0.9460   35.7360   -4.4060 N.3   136  THR136     -0.1218
    183  CA         0.8420   34.7210   -5.4760 C.3   136  THR136      0.1862
    184  C         -0.4190   35.1120   -6.2340 C.2   136  THR136      0.2287
    185  O         -1.5810   35.0790   -5.6960 O.2   136  THR136     -0.2866
    186  CB         0.5830   33.3020   -4.9170 C.3   136  THR136      0.1770
    187  OG1        1.5330   33.0290   -3.8320 O.3   136  THR136     -0.2211
    188  CG2        0.6630   32.2300   -6.0430 C.3   136  THR136      0.0375
@<TRIPOS>BOND
     1   184   185    2
     2   184   183    1
     3    41    38    1
     4    41    42    1
     5   188   186    1
     6   183   186    1
     7   183   182    1
     8    38    39    1
     9    38    37    1
    10    54    53    1
    11    42    44   ar
    12    42    43   ar
    13    47    44   ar
    14    47    49   ar
    15   186   187    1
    16    39    40    2
    17    44    46   ar
    18    49    50   ar
    19    53    52    1
    20    43    45   ar
    21    58    59    1
    22    63    62    1
    23    63    64    1
    24    51    57    2
    25    51    52    1
    26    62    59    1
    27    57    56    1
    28    46    45   ar
    29    46    48   ar
    30    59    60    1
    31    50    48   ar
    32    52    55    1
    33    18    17    1
    34    18    19    2
    35    64    65   ar
    36    64    66   ar
    37    87    85   ar
    38    87    88   ar
    39    85    83   ar
    40    56    55    2
    41    89    88    1
    42    88    86   ar
    43    83    82    1
    44    83    84   ar
    45    82    79    1
    46    17    20    1
    47    17    16    1
    48    86    84   ar
    49    60    67   am
    50    60    61    2
    51    12    11    2
    52    67    68    1
    53    32    31    1
    54    31    30    1
    55    16    11   am
    56    79    78    1
    57    79    80    1
    58    11    10    1
    59    33    30    1
    60    33    34    1
    61    14    13    1
    62    30    29    1
    63    68    71    1
    64    68    69    1
    65    34    36    1
    66    34    35    1
    67    74    76   ar
    68    74    72   ar
    69    76    77   ar
    70    80    90   am
    71    80    81    2
    72    71    72    1
    73    15    13    1
    74    72    73   ar
    75    69    70    2
    76    13    10    1
    77    10     9    1
    78    77    75   ar
    79    90    91    1
    80    73    75   ar
    81    29    23   am
    82     9     3   am
    83    28    26   ar
    84     6     8    1
    85     6     5    1
    86    24    23    2
    87    91    94    1
    88    91    92    1
    89    23    22    1
    90    94    95    1
    91    26    27   ar
    92    26    25    1
    93     3     2    1
    94     3     4    2
    95    25    22    1
    96     2     5    1
    97     2     1    1
    98     5     7    1
    99    22    21    1
   100    92   101   am
   101    92    93    2
   102   101   102    1
   103    95    96   ar
   104    95    97   ar
   105   178   176   ar
   106   178   180   ar
   107   181   180    1
   108    96    98   ar
   109   176   175   ar
   110   180   179   ar
   111    97    99   ar
   112   102   105    1
   113   102   103    1
   114   105   106    1
   115   103   104    2
   116   106   107    1
   117   175   174    1
   118   175   177   ar
   119   179   177   ar
   120   174   171    1
   121    98   100   ar
   122   173   172    1
   123    99   100   ar
   124   107   108    2
   125   107   109   am
   126   172   171    1
   127   166   165    1
   128   171   170    1
   129   146   145    1
   130   145   144    1
   131   120   119    2
   132   136   137    1
   133   136   135    1
   134   122   121    1
   135   165   164    1
   136   121   118    1
   137   164   167    1
   138   164   163    1
   139   137   131    1
   140   154   152   am
   141   153   152    2
   142   167   168    1
   143   167   169    1
   144   119   118    1
   145   119   123   am
   146   152   151    1
   147   135   132    1
   148   144   143    1
   149   118   117    1
   150   116   114    1
   151   115   114    1
   152   131   132    1
   153   131   125   am
   154   124   123    1
   155   124   125    1
   156   124   127    1
   157   128   127    1
   158   128   130    1
   159   114   111    1
   160   143   142    1
   161   151   148    1
   162   132   133    1
   163   129   127    1
   164   111   110    1
   165   111   112    1
   166   125   126    2
   167   113   112    2
   168   162   160    1
   169   161   160    1
   170   148   147    1
   171   148   149    1
   172   133   134    2
   173   142   139    1
   174   160   159    1
   175   147   140   am
   176   150   149    2
   177   140   141    2
   178   140   139    1
   179   139   138    1
   180   159   156    1
   181   156   157    1
   182   156   155    1
   183   157   158    2
