@<TRIPOS>MOLECULE
tmp/1mvyA01.pdb
 88 85 0 0 0
SMALL
GASTEIGER

@<TRIPOS>ATOM
      1  N         82.3580    0.2000    5.6310 N.3   557  VAL557     -0.1231
      2  CA        81.8550   -0.6540    4.5670 C.3   557  VAL557      0.1692
      3  C         80.8170   -1.5260    5.2580 C.2   557  VAL557      0.2593
      4  O         81.1270   -2.2030    6.2420 O.2   557  VAL557     -0.2718
      5  CB        82.9630   -1.5520    3.9760 C.3   557  VAL557      0.0266
      6  CG1       82.3540   -2.5420    2.9980 C.3   557  VAL557      0.0020
      7  CG2       84.0090   -0.6960    3.2760 C.3   557  VAL557      0.0020
      8  N         79.5800   -1.4900    4.7740 N.am  558  THR558     -0.1939
      9  CA        78.5440   -2.2960    5.3960 C.3   558  THR558      0.2028
     10  C         78.7620   -3.7790    5.1020 C.2   558  THR558      0.2642
     11  O         79.3910   -4.1500    4.1120 O.2   558  THR558     -0.2714
     12  CB        77.1290   -1.8650    4.9370 C.3   558  THR558      0.1808
     13  OG1       77.0280   -1.9520    3.5110 O.3   558  THR558     -0.2208
     14  CG2       76.8480   -0.4300    5.3780 C.3   558  THR558      0.0379
     15  N         78.2400   -4.6170    5.9860 N.am  559  PHE559     -0.1959
     16  CA        78.3710   -6.0610    5.8660 C.3   559  PHE559      0.1771
     17  C         76.9700   -6.6600    5.8160 C.2   559  PHE559      0.2619
     18  O         76.1760   -6.4510    6.7320 O.2   559  PHE559     -0.2715
     19  CB        79.1250   -6.5970    7.0890 C.3   559  PHE559      0.0574
     20  CG        79.3160   -8.0900    7.0920 C.ar  559  PHE559     -0.0200
     21  CD1       80.3790   -8.6720    6.4080 C.ar  559  PHE559     -0.0042
     22  CD2       78.4390   -8.9140    7.7930 C.ar  559  PHE559     -0.0042
     23  CE1       80.5690  -10.0570    6.4250 C.ar  559  PHE559     -0.0003
     24  CE2       78.6160  -10.2990    7.8160 C.ar  559  PHE559     -0.0003
     25  CZ        79.6850  -10.8710    7.1310 C.ar  559  PHE559     -0.0000
     26  N         76.6590   -7.3920    4.7490 N.am  560  ASN560     -0.1972
     27  CA        75.3400   -8.0080    4.6310 C.3   560  ASN560      0.1688
     28  C         75.2640   -9.1710    5.6130 C.2   560  ASN560      0.2292
     29  O         75.9250  -10.1930    5.4360 O.2   560  ASN560     -0.2864
     30  CB        75.0970   -8.5060    3.1980 C.3   560  ASN560      0.1181
     31  CG        75.1200   -7.3800    2.1800 C.2   560  ASN560      0.2629
     32  OD1       74.3770   -6.3970    2.2970 O.2   560  ASN560     -0.2716
     33  ND2       75.9760   -7.5130    1.1720 N.am  560  ASN560     -0.0877
     34  N         72.5020  -10.8610    6.3120 N.3   562  ASN562     -0.1240
     35  CA        71.4790  -11.7980    5.8580 C.3   562  ASN562      0.1653
     36  C         70.4240  -12.0540    6.9340 C.2   562  ASN562      0.2266
     37  O         69.7070  -13.0610    6.9120 O.2   562  ASN562     -0.2867
     38  CB        72.1090  -13.1080    5.3830 C.3   562  ASN562      0.1155
     39  CG        72.8280  -12.9420    4.0600 C.2   562  ASN562      0.2627
     40  OD1       72.2830  -12.3520    3.1250 O.2   562  ASN562     -0.2716
     41  ND2       74.0530  -13.4550    3.9720 N.am  562  ASN562     -0.0877
     42  N         82.0040   -2.8120    8.7250 N.3   570  ILE570     -0.1245
     43  CA        83.4140   -2.9960    9.0420 C.3   570  ILE570      0.1561
     44  C         84.1720   -1.6790    9.0030 C.2   570  ILE570      0.2260
     45  O         84.0140   -0.8860    8.0750 O.2   570  ILE570     -0.2867
     46  CB        84.0830   -3.9830    8.0450 C.3   570  ILE570      0.0252
     47  CG1       83.3770   -5.3350    8.0980 C.3   570  ILE570      0.0019
     48  CG2       85.5580   -4.1530    8.3780 C.3   570  ILE570      0.0019
     49  CD1       83.7620   -6.2740    6.9740 C.3   570  ILE570      0.0001
     50  N         77.4850  -19.6880    7.3150 N.3   591  HIS591     -0.1226
     51  CA        77.6150  -19.5160    5.8750 C.3   591  HIS591      0.1752
     52  C         77.9060  -18.0540    5.5380 C.2   591  HIS591      0.2596
     53  O         78.7630  -17.7490    4.7090 O.2   591  HIS591     -0.2718
     54  CB        76.3400  -19.9780    5.1630 C.3   591  HIS591      0.0759
     55  CG        76.4330  -19.9200    3.6690 C.ar  591  HIS591      0.0818
     56  ND1       76.2920  -18.7470    2.9580 N.ar  591  HIS591     -0.2268
     57  CD2       76.6940  -20.8840    2.7540 C.ar  591  HIS591      0.1154
     58  CE1       76.4600  -18.9920    1.6700 C.ar  591  HIS591      0.1986
     59  NE2       76.7060  -20.2810    1.5200 N.ar  591  HIS591     -0.2212
     60  N         77.1870  -17.1510    6.1930 N.am  592  THR592     -0.1953
     61  CA        77.3700  -15.7220    5.9780 C.3   592  THR592      0.1897
     62  C         78.7630  -15.2660    6.4210 C.2   592  THR592      0.2313
     63  O         79.3300  -14.3350    5.8490 O.2   592  THR592     -0.2863
     64  CB        76.2970  -14.9250    6.7580 C.3   592  THR592      0.1794
     65  OG1       75.0120  -15.1740    6.1760 O.3   592  THR592     -0.2208
     66  CG2       76.5890  -13.4270    6.7350 C.3   592  THR592      0.0378
     67  N         81.6750  -17.0730    6.3220 N.3   594  GLN594     -0.1231
     68  CA        82.7710  -17.8520    5.7400 C.3   594  GLN594      0.1698
     69  C         84.0510  -17.0770    5.4140 C.2   594  GLN594      0.2592
     70  O         85.1470  -17.6370    5.4520 O.2   594  GLN594     -0.2718
     71  CB        82.2990  -18.5510    4.4700 C.3   594  GLN594      0.0381
     72  CG        81.1460  -19.5060    4.6720 C.3   594  GLN594      0.0905
     73  CD        80.7050  -20.1260    3.3670 C.2   594  GLN594      0.2608
     74  OE1       81.3740  -21.0080    2.8280 O.2   594  GLN594     -0.2717
     75  NE2       79.5800  -19.6540    2.8410 N.am  594  GLN594     -0.0878
     76  N         83.9200  -15.8010    5.0780 N.am  595  ALA595     -0.1966
     77  CA        85.0920  -15.0030    4.7380 C.3   595  ALA595      0.1728
     78  C         85.8590  -14.5010    5.9610 C.2   595  ALA595      0.2616
     79  O         86.9770  -14.0050    5.8310 O.2   595  ALA595     -0.2715
     80  CB        84.6780  -13.8270    3.8680 C.3   595  ALA595      0.0334
     81  N         85.2620  -14.6470    7.1420 N.am  596  MET596     -0.1977
     82  CA        85.8600  -14.1890    8.3970 C.3   596  MET596      0.1605
     83  C         86.7660  -15.2180    9.0740 C.2   596  MET596      0.2287
     84  O         86.6910  -16.4110    8.7900 O.2   596  MET596     -0.2864
     85  CB        84.7520  -13.7990    9.3780 C.3   596  MET596      0.0413
     86  CG        83.8500  -12.6760    8.8960 C.3   596  MET596      0.0598
     87  SD        84.7220  -11.1100    8.8080 S.3   596  MET596     -0.1393
     88  CE        84.9950  -10.9340    7.0400 C.3   596  MET596      0.0692
@<TRIPOS>BOND
     1    33    31   am
     2    59    58   ar
     3    59    57   ar
     4    58    56   ar
     5    31    32    2
     6    31    30    1
     7    57    55   ar
     8    74    73    2
     9    75    73   am
    10    56    55   ar
    11     6     5    1
    12    40    39    2
    13    30    27    1
    14     7     5    1
    15    73    72    1
    16    13    12    1
    17    55    54    1
    18    80    77    1
    19    41    39   am
    20     5     2    1
    21    39    38    1
    22    11    10    2
    23    71    72    1
    24    71    68    1
    25     2     3    1
    26     2     1    1
    27    27    26    1
    28    27    28    1
    29    53    52    2
    30    77    76    1
    31    77    78    1
    32    26    17   am
    33     8     3   am
    34     8     9    1
    35    12    14    1
    36    12     9    1
    37    76    69   am
    38    10     9    1
    39    10    15   am
    40    54    51    1
    41     3     4    2
    42    38    35    1
    43    69    70    2
    44    69    68    1
    45    29    28    2
    46    52    51    1
    47    52    60   am
    48    68    67    1
    49    17    16    1
    50    17    18    2
    51    79    78    2
    52    63    62    2
    53    35    34    1
    54    35    36    1
    55    16    15    1
    56    16    19    1
    57    51    50    1
    58    78    81   am
    59    61    60    1
    60    61    62    1
    61    61    64    1
    62    65    64    1
    63    21    23   ar
    64    21    20   ar
    65    23    25   ar
    66    66    64    1
    67    37    36    2
    68    49    47    1
    69    88    87    1
    70    19    20    1
    71    20    22   ar
    72    25    24   ar
    73    81    82    1
    74    22    24   ar
    75    46    47    1
    76    46    48    1
    77    46    43    1
    78    45    44    2
    79    82    83    1
    80    82    85    1
    81    42    43    1
    82    84    83    2
    83    87    86    1
    84    86    85    1
    85    44    43    1
