@<TRIPOS>MOLECULE
tmp/1mvyA02.pdb
 131 125 0 0 0
SMALL
GASTEIGER

@<TRIPOS>ATOM
      1  N         63.2970   30.5900   23.4740 N.3   144  ASP144     -0.1239
      2  CA        63.5760   29.3830   22.7060 C.3   144  ASP144      0.1674
      3  C         64.8660   28.7840   23.2700 C.2   144  ASP144      0.2266
      4  O         65.8090   28.4840   22.5380 O.2   144  ASP144     -0.2867
      5  CB        63.7220   29.7070   21.2130 C.3   144  ASP144      0.1410
      6  CG        63.9530   28.4650   20.3570 C.2   144  ASP144      0.3668
      7  OD1       63.5700   27.3510   20.7770 O.co2 144  ASP144     -0.2456
      8  OD2       64.5060   28.6060   19.2480 O.co2 144  ASP144     -0.2456
      9  N         68.0320   30.5250   22.1990 N.3   147  TYR147     -0.1241
     10  CA        68.2710   30.7200   20.7710 C.3   147  TYR147      0.1605
     11  C         67.7470   32.0360   20.1940 C.2   147  TYR147      0.2264
     12  O         67.8350   32.2770   18.9880 O.2   147  TYR147     -0.2867
     13  CB        67.7330   29.5350   19.9670 C.3   147  TYR147      0.0534
     14  CG        68.6890   28.3620   19.9410 C.ar  147  TYR147     -0.0201
     15  CD1       68.5370   27.2820   20.8150 C.ar  147  TYR147     -0.0009
     16  CD2       69.7790   28.3580   19.0720 C.ar  147  TYR147     -0.0009
     17  CE1       69.4570   26.2240   20.8200 C.ar  147  TYR147      0.0417
     18  CE2       70.6990   27.3170   19.0720 C.ar  147  TYR147      0.0417
     19  CZ        70.5360   26.2560   19.9430 C.ar  147  TYR147      0.1957
     20  OH        71.4610   25.2340   19.9280 O.3   147  TYR147     -0.2866
     21  N         69.3670   34.4860   12.8280 N.3   187  HIS187     -0.1241
     22  CA        68.3860   35.3760   13.4320 C.3   187  HIS187      0.1621
     23  C         68.8010   35.8660   14.8110 C.2   187  HIS187      0.2264
     24  O         69.6640   35.2750   15.4580 O.2   187  HIS187     -0.2867
     25  CB        67.0610   34.6290   13.5640 C.3   187  HIS187      0.0745
     26  CG        67.2070   33.2750   14.1900 C.ar  187  HIS187      0.0817
     27  ND1       67.4700   32.1390   13.4540 N.ar  187  HIS187     -0.2268
     28  CD2       67.2130   32.8900   15.4900 C.ar  187  HIS187      0.1154
     29  CE1       67.6340   31.1140   14.2730 C.ar  187  HIS187      0.1986
     30  NE2       67.4840   31.5440   15.5140 N.ar  187  HIS187     -0.2212
     31  N         58.3160   25.5600   10.5880 N.3   228  ILE228     -0.1231
     32  CA        59.1370   24.9080   11.6050 C.3   228  ILE228      0.1692
     33  C         58.3740   24.7680   12.9170 C.2   228  ILE228      0.2592
     34  O         58.3870   23.7020   13.5350 O.2   228  ILE228     -0.2718
     35  CB        60.4460   25.6880   11.8560 C.3   228  ILE228      0.0266
     36  CG1       61.1770   25.9130   10.5290 C.3   228  ILE228      0.0019
     37  CG2       61.3390   24.9150   12.8140 C.3   228  ILE228      0.0020
     38  CD1       61.5120   24.6310    9.7720 C.3   228  ILE228      0.0001
     39  N         57.7130   25.8430   13.3410 N.am  229  PHE229     -0.1976
     40  CA        56.9210   25.8200   14.5710 C.3   229  PHE229      0.1639
     41  C         55.4970   26.2540   14.2400 C.2   229  PHE229      0.2290
     42  O         55.0760   27.3560   14.5890 O.2   229  PHE229     -0.2864
     43  CB        57.4950   26.7660   15.6340 C.3   229  PHE229      0.0560
     44  CG        58.8830   26.4160   16.0820 C.ar  229  PHE229     -0.0200
     45  CD1       59.2490   25.0890   16.3050 C.ar  229  PHE229     -0.0042
     46  CD2       59.8260   27.4140   16.2980 C.ar  229  PHE229     -0.0042
     47  CE1       60.5330   24.7660   16.7330 C.ar  229  PHE229     -0.0003
     48  CE2       61.1130   27.0960   16.7280 C.ar  229  PHE229     -0.0003
     49  CZ        61.4660   25.7730   16.9450 C.ar  229  PHE229     -0.0000
     50  N         61.4510   30.9370   12.7700 N.3   250  PHE250     -0.1241
     51  CA        61.2030   30.2180   14.0090 C.3   250  PHE250      0.1605
     52  C         60.1610   30.9120   14.8840 C.2   250  PHE250      0.2264
     53  O         59.0410   31.1420   14.4280 O.2   250  PHE250     -0.2867
     54  CB        62.5510   30.0220   14.7110 C.3   250  PHE250      0.0534
     55  CG        63.5580   29.2920   13.8430 C.ar  250  PHE250     -0.0203
     56  CD1       63.3830   27.9400   13.5480 C.ar  250  PHE250     -0.0042
     57  CD2       64.6120   29.9710   13.2430 C.ar  250  PHE250     -0.0042
     58  CE1       64.2370   27.2710   12.6610 C.ar  250  PHE250     -0.0003
     59  CE2       65.4750   29.3180   12.3540 C.ar  250  PHE250     -0.0003
     60  CZ        65.2850   27.9630   12.0610 C.ar  250  PHE250     -0.0000
     61  N         62.0460   35.7990   17.1560 N.3   254  GLN254     -0.1245
     62  CA        63.3230   35.5570   16.4870 C.3   254  GLN254      0.1566
     63  C         63.1980   36.1020   15.0620 C.2   254  GLN254      0.2260
     64  O         62.4240   35.5890   14.2530 O.2   254  GLN254     -0.2867
     65  CB        63.6540   34.0570   16.4670 C.3   254  GLN254      0.0367
     66  CG        64.0950   33.5070   17.8270 C.3   254  GLN254      0.0905
     67  CD        63.9630   31.9950   17.9270 C.2   254  GLN254      0.2608
     68  OE1       62.8720   31.4500   17.7680 O.2   254  GLN254     -0.2717
     69  NE2       65.0720   31.3130   18.2060 N.am  254  GLN254     -0.0878
     70  N         78.7500   25.8860   16.2330 N.3   284  ARG284     -0.1245
     71  CA        77.6010   25.1790   15.6890 C.3   284  ARG284      0.1563
     72  C         76.8480   26.2310   14.8840 C.2   284  ARG284      0.2260
     73  O         76.3070   27.1850   15.4430 O.2   284  ARG284     -0.2867
     74  CB        76.7220   24.6260   16.8130 C.3   284  ARG284      0.0307
     75  CG        75.4760   23.8810   16.3250 C.3   284  ARG284      0.0489
     76  CD        74.7320   23.2460   17.4950 C.3   284  ARG284      0.2205
     77  NE        73.4610   22.6290   17.1120 N.pl3 284  ARG284     -0.0865
     78  CZ        72.3680   23.3080   16.7720 C.cat 284  ARG284      0.5346
     79  NH1       72.3800   24.6340   16.7590 N.pl3 284  ARG284      0.1354
     80  NH2       71.2530   22.6610   16.4600 N.pl3 284  ARG284      0.1354
     81  N         74.0300   27.4280   13.6210 N.3   286  ASP286     -0.1225
     82  CA        72.5920   27.2910   13.7660 C.3   286  ASP286      0.1805
     83  C         71.7610   27.7300   12.5640 C.2   286  ASP286      0.2597
     84  O         71.8720   28.8570   12.0800 O.2   286  ASP286     -0.2718
     85  CB        72.1290   28.0440   15.0090 C.3   286  ASP286      0.1424
     86  CG        70.6840   27.7640   15.3410 C.2   286  ASP286      0.3668
     87  OD1       70.3620   26.6020   15.6790 O.co2 286  ASP286     -0.2456
     88  OD2       69.8740   28.7050   15.2540 O.co2 286  ASP286     -0.2456
     89  N         70.9180   26.8160   12.0930 N.am  287  ALA287     -0.1979
     90  CA        70.0290   27.0700   10.9680 C.3   287  ALA287      0.1597
     91  C         70.7380   27.5690    9.7100 C.2   287  ALA287      0.2287
     92  O         70.3270   28.5670    9.1130 O.2   287  ALA287     -0.2864
     93  CB        68.9490   28.0590   11.3870 C.3   287  ALA287      0.0319
     94  N         74.3030   22.1370   11.2380 N.3   328  GLN328     -0.1245
     95  CA        73.2220   21.4900   11.9730 C.3   328  GLN328      0.1566
     96  C         71.9450   21.4180   11.1380 C.2   328  GLN328      0.2260
     97  O         70.8340   21.4770   11.6720 O.2   328  GLN328     -0.2867
     98  CB        72.9580   22.2180   13.2970 C.3   328  GLN328      0.0367
     99  CG        72.7590   23.7180   13.1880 C.3   328  GLN328      0.0905
    100  CD        71.6330   24.0840   12.2510 C.2   328  GLN328      0.2608
    101  OE1       71.8010   24.0850   11.0270 O.2   328  GLN328     -0.2717
    102  NE2       70.4640   24.3760   12.8170 N.am  328  GLN328     -0.0878
    103  N         69.1890   18.4480   22.1590 N.3   392  HIS392     -0.1226
    104  CA        68.2670   19.3260   22.8660 C.3   392  HIS392      0.1752
    105  C         66.9640   19.4480   22.0880 C.2   392  HIS392      0.2596
    106  O         65.9620   19.9360   22.6090 O.2   392  HIS392     -0.2718
    107  CB        68.8820   20.7160   23.0140 C.3   392  HIS392      0.0759
    108  CG        69.1610   21.3850   21.7050 C.ar  392  HIS392      0.0818
    109  ND1       70.0910   20.9050   20.8090 N.ar  392  HIS392     -0.2268
    110  CD2       68.6220   22.4880   21.1330 C.ar  392  HIS392      0.1154
    111  CE1       70.1140   21.6830   19.7410 C.ar  392  HIS392      0.1986
    112  NE2       69.2320   22.6510   19.9130 N.ar  392  HIS392     -0.2212
    113  N         66.9840   19.0170   20.8310 N.am  393  ASP393     -0.1974
    114  CA        65.7970   19.1020   19.9900 C.3   393  ASP393      0.1709
    115  C         65.0130   17.8080   19.8470 C.2   393  ASP393      0.2293
    116  O         65.4770   16.7150   20.1800 O.2   393  ASP393     -0.2864
    117  CB        66.1480   19.5720   18.5690 C.3   393  ASP393      0.1436
    118  CG        66.3280   21.0760   18.4630 C.2   393  ASP393      0.3671
    119  OD1       65.6980   21.8190   19.2430 O.co2 393  ASP393     -0.2456
    120  OD2       67.0890   21.5150   17.5710 O.co2 393  ASP393     -0.2456
    121  N         59.7580   20.1800   23.8350 N.3   509  ARG509     -0.1245
    122  CA        61.1680   19.8170   23.8020 C.3   509  ARG509      0.1563
    123  C         61.7480   19.8980   25.2150 C.2   509  ARG509      0.2260
    124  O         62.7420   19.2370   25.5260 O.2   509  ARG509     -0.2867
    125  CB        61.9360   20.7400   22.8520 C.3   509  ARG509      0.0307
    126  CG        61.5740   20.5410   21.3790 C.3   509  ARG509      0.0489
    127  CD        62.3330   21.5140   20.4950 C.3   509  ARG509      0.2205
    128  NE        61.8760   22.8890   20.6870 N.pl3 509  ARG509     -0.0865
    129  CZ        62.4550   23.9560   20.1410 C.cat 509  ARG509      0.5346
    130  NH1       63.5240   23.8130   19.3700 N.pl3 509  ARG509      0.1354
    131  NH2       61.9560   25.1660   20.3560 N.pl3 509  ARG509      0.1354
@<TRIPOS>BOND
     1    92    91    2
     2    91    90    1
     3    38    36    1
     4    36    35    1
     5    31    32    1
     6    90    93    1
     7    90    89    1
     8   101   100    2
     9    96    97    2
    10    96    95    1
    11    94    95    1
    12    32    35    1
    13    32    33    1
    14    35    37    1
    15    95    98    1
    16    60    59   ar
    17    60    58   ar
    18    84    83    2
    19    89    83   am
    20   100   102   am
    21   100    99    1
    22    59    57   ar
    23    83    82    1
    24    58    56   ar
    25    50    51    1
    26    21    22    1
    27    33    39   am
    28    33    34    2
    29    99    98    1
    30    57    55   ar
    31    39    40    1
    32    22    25    1
    33    22    23    1
    34    27    26   ar
    35    27    29   ar
    36    56    55   ar
    37    25    26    1
    38    81    82    1
    39    82    85    1
    40    55    54    1
    41    51    54    1
    42    51    52    1
    43    26    28   ar
    44    41    40    1
    45    41    42    2
    46    64    63    2
    47    29    30   ar
    48    53    52    2
    49    40    43    1
    50    23    24    2
    51    72    73    2
    52    72    71    1
    53    85    86    1
    54    63    62    1
    55    88    86   ar
    56    86    87   ar
    57    28    30   ar
    58    43    44    1
    59    71    70    1
    60    71    74    1
    61    44    46   ar
    62    44    45   ar
    63    46    48   ar
    64    45    47   ar
    65    75    74    1
    66    75    76    1
    67    80    78    1
    68    65    62    1
    69    65    66    1
    70    62    61    1
    71    48    49   ar
    72    47    49   ar
    73    79    78    1
    74    78    77    2
    75    77    76    1
    76   120   118   ar
    77    68    67    2
    78    66    67    1
    79    67    69   am
    80   118   117    1
    81   118   119   ar
    82   117   114    1
    83    12    11    2
    84    18    16   ar
    85    18    19   ar
    86    16    14   ar
    87     8     6   ar
    88   130   129    1
    89   111   112   ar
    90   111   109   ar
    91   115   114    1
    92   115   116    2
    93   112   110   ar
    94    20    19    1
    95    14    13    1
    96    14    15   ar
    97    19    17   ar
    98    13    10    1
    99   114   113    1
   100   129   131    1
   101   129   128    2
   102    11    10    1
   103     6     7   ar
   104     6     5    1
   105   127   128    1
   106   127   126    1
   107    10     9    1
   108   109   108   ar
   109    15    17   ar
   110   113   105   am
   111   110   108   ar
   112     5     2    1
   113   126   125    1
   114   108   107    1
   115   105   106    2
   116   105   104    1
   117   103   104    1
   118     4     3    2
   119     2     3    1
   120     2     1    1
   121   125   122    1
   122   104   107    1
   123   122   121    1
   124   122   123    1
   125   123   124    2
