@<TRIPOS>MOLECULE
tmp/1mvyA00.pdb
 118 116 0 0 0
SMALL
GASTEIGER

@<TRIPOS>ATOM
      1  N         62.0740    0.7300   16.5120 N.3   362  ALA362     -0.1231
      2  CA        60.6320    0.5730   16.3800 C.3   362  ALA362      0.1694
      3  C         60.2350   -0.5580   15.4370 C.2   362  ALA362      0.2593
      4  O         59.3900   -1.3870   15.7760 O.2   362  ALA362     -0.2718
      5  CB        60.0090    1.8870   15.9110 C.3   362  ALA362      0.0304
      6  N         60.8520   -0.5960   14.2610 N.am  363  THR363     -0.1939
      7  CA        60.5370   -1.6170   13.2640 C.3   363  THR363      0.2028
      8  C         61.2650   -2.9440   13.4600 C.2   363  THR363      0.2642
      9  O         60.7960   -3.9780   12.9900 O.2   363  THR363     -0.2714
     10  CB        60.8760   -1.1330   11.8380 C.3   363  THR363      0.1808
     11  OG1       62.2960   -1.0080   11.7060 O.3   363  THR363     -0.2208
     12  CG2       60.2220    0.2120   11.5530 C.3   363  THR363      0.0379
     13  N         62.4050   -2.9010   14.1460 N.am  364  ARG364     -0.1963
     14  CA        63.2460   -4.0820   14.3700 C.3   364  ARG364      0.1729
     15  C         63.9340   -4.4760   13.0650 C.2   364  ARG364      0.2616
     16  O         64.6120   -5.4970   13.0040 O.2   364  ARG364     -0.2715
     17  CB        62.4320   -5.2830   14.8790 C.3   364  ARG364      0.0348
     18  CG        62.1570   -5.3080   16.3770 C.3   364  ARG364      0.0492
     19  CD        61.0880   -4.3100   16.7880 C.3   364  ARG364      0.2205
     20  NE        60.6160   -4.5860   18.1390 N.pl3 364  ARG364     -0.0865
     21  CZ        59.7190   -3.8550   18.7930 C.cat 364  ARG364      0.5346
     22  NH1       59.1790   -2.7860   18.2240 N.pl3 364  ARG364      0.1354
     23  NH2       59.3610   -4.1970   20.0230 N.pl3 364  ARG364      0.1354
     24  N         63.7610   -3.6540   12.0310 N.am  365  GLU365     -0.1977
     25  CA        64.3460   -3.9110   10.7150 C.3   365  GLU365      0.1602
     26  C         65.4350   -2.8980   10.3790 C.2   365  GLU365      0.2287
     27  O         65.2000   -1.6910   10.4030 O.2   365  GLU365     -0.2864
     28  CB        63.2580   -3.8470    9.6490 C.3   365  GLU365      0.0415
     29  CG        62.1150   -4.8150    9.8750 C.3   365  GLU365      0.1163
     30  CD        60.9590   -4.5560    8.9310 C.2   365  GLU365      0.3649
     31  OE1       60.3050   -3.5020    9.0650 O.co2 365  GLU365     -0.2457
     32  OE2       60.7100   -5.4010    8.0490 O.co2 365  GLU365     -0.2457
     33  N         58.7440    1.2240    0.8460 N.3   409  ILE409     -0.1231
     34  CA        58.1760    1.9020    2.0020 C.3   409  ILE409      0.1692
     35  C         57.6550    3.2920    1.6550 C.2   409  ILE409      0.2592
     36  O         58.3450    4.0740    1.0060 O.2   409  ILE409     -0.2718
     37  CB        59.2270    2.0410    3.1200 C.3   409  ILE409      0.0266
     38  CG1       59.7120    0.6520    3.5490 C.3   409  ILE409      0.0019
     39  CG2       58.6390    2.8060    4.3010 C.3   409  ILE409      0.0020
     40  CD1       60.8510    0.6790    4.5530 C.3   409  ILE409      0.0001
     41  N         56.4320    3.5840    2.0870 N.am  410  SER410     -0.1952
     42  CA        55.8170    4.8930    1.8630 C.3   410  SER410      0.1924
     43  C         56.2280    5.8140    3.0050 C.2   410  SER410      0.2314
     44  O         55.8560    5.5860    4.1610 O.2   410  SER410     -0.2863
     45  CB        54.2950    4.7810    1.8460 C.3   410  SER410      0.2116
     46  OG        53.6990    6.0550    2.0430 O.3   410  SER410     -0.2180
     47  N         53.2340    7.2680    5.1650 N.3   413  ASP413     -0.1225
     48  CA        52.6560    6.2290    6.0120 C.3   413  ASP413      0.1805
     49  C         53.6220    5.7690    7.1010 C.2   413  ASP413      0.2597
     50  O         53.2180    5.5250    8.2420 O.2   413  ASP413     -0.2718
     51  CB        52.2350    5.0130    5.1770 C.3   413  ASP413      0.1424
     52  CG        51.1230    5.3300    4.1930 C.2   413  ASP413      0.3668
     53  OD1       50.5310    6.4270    4.2910 O.co2 413  ASP413     -0.2456
     54  OD2       50.8360    4.4730    3.3260 O.co2 413  ASP413     -0.2456
     55  N         54.8970    5.6490    6.7470 N.am  414  HIS414     -0.1975
     56  CA        55.8930    5.1970    7.7060 C.3   414  HIS414      0.1656
     57  C         56.0950    6.1970    8.8440 C.2   414  HIS414      0.2291
     58  O         56.2210    5.8050   10.0010 O.2   414  HIS414     -0.2864
     59  CB        57.2210    4.9260    6.9980 C.3   414  HIS414      0.0771
     60  CG        58.1720    4.0970    7.8040 C.ar  414  HIS414      0.0820
     61  ND1       57.8890    2.8040    8.1870 N.ar  414  HIS414     -0.2267
     62  CD2       59.3900    4.3850    8.3210 C.ar  414  HIS414      0.1154
     63  CE1       58.8900    2.3300    8.9060 C.ar  414  HIS414      0.1986
     64  NE2       59.8140    3.2700    9.0030 N.ar  414  HIS414     -0.2212
     65  N         53.4460    5.9630   11.4030 N.3   417  PHE417     -0.1241
     66  CA        53.6970    4.8610   12.3210 C.3   417  PHE417      0.1605
     67  C         54.7260    5.2550   13.3760 C.2   417  PHE417      0.2264
     68  O         54.4900    5.0910   14.5730 O.2   417  PHE417     -0.2867
     69  CB        54.2150    3.6260   11.5780 C.3   417  PHE417      0.0534
     70  CG        54.9170    2.6410   12.4780 C.ar  417  PHE417     -0.0203
     71  CD1       54.2050    1.9250   13.4390 C.ar  417  PHE417     -0.0042
     72  CD2       56.3040    2.4810   12.4130 C.ar  417  PHE417     -0.0042
     73  CE1       54.8620    1.0690   14.3280 C.ar  417  PHE417     -0.0003
     74  CE2       56.9720    1.6280   13.2980 C.ar  417  PHE417     -0.0003
     75  CZ        56.2470    0.9210   14.2590 C.ar  417  PHE417     -0.0000
     76  N         54.2160    5.2960   17.3290 N.3   421  PHE421     -0.1241
     77  CA        55.0140    4.4000   18.1520 C.3   421  PHE421      0.1605
     78  C         55.7750    5.1120   19.2650 C.2   421  PHE421      0.2264
     79  O         55.7220    4.6970   20.4270 O.2   421  PHE421     -0.2867
     80  CB        56.0010    3.6160   17.2750 C.3   421  PHE421      0.0534
     81  CG        56.8450    2.6290   18.0410 C.ar  421  PHE421     -0.0203
     82  CD1       58.0040    3.0380   18.6940 C.ar  421  PHE421     -0.0042
     83  CD2       56.4650    1.2960   18.1300 C.ar  421  PHE421     -0.0042
     84  CE1       58.7680    2.1350   19.4220 C.ar  421  PHE421     -0.0003
     85  CE2       57.2240    0.3840   18.8580 C.ar  421  PHE421     -0.0003
     86  CZ        58.3760    0.8040   19.5050 C.ar  421  PHE421     -0.0000
     87  N         50.8050    3.1790   19.9210 N.3   426  PHE426     -0.1241
     88  CA        50.9050    1.9850   19.0890 C.3   426  PHE426      0.1605
     89  C         50.9940    0.8090   20.0440 C.2   426  PHE426      0.2264
     90  O         51.8870    0.7550   20.8860 O.2   426  PHE426     -0.2867
     91  CB        52.1550    2.0140   18.2070 C.3   426  PHE426      0.0534
     92  CG        52.2240    0.8700   17.2310 C.ar  426  PHE426     -0.0203
     93  CD1       51.4830    0.8990   16.0510 C.ar  426  PHE426     -0.0042
     94  CD2       52.9940   -0.2540   17.5100 C.ar  426  PHE426     -0.0042
     95  CE1       51.5080   -0.1760   15.1660 C.ar  426  PHE426     -0.0003
     96  CE2       53.0260   -1.3360   16.6320 C.ar  426  PHE426     -0.0003
     97  CZ        52.2810   -1.2980   15.4570 C.ar  426  PHE426     -0.0000
     98  N         64.2220   -7.7110   19.8630 N.3   583  GLU583     -0.1231
     99  CA        64.1350   -7.9930   21.2910 C.3   583  GLU583      0.1699
    100  C         64.2590   -9.5050   21.5080 C.2   583  GLU583      0.2592
    101  O         64.1320   -9.9940   22.6270 O.2   583  GLU583     -0.2718
    102  CB        62.8100   -7.4800   21.8790 C.3   583  GLU583      0.0402
    103  CG        61.5520   -8.1850   21.3750 C.3   583  GLU583      0.1161
    104  CD        60.9220   -7.4940   20.1750 C.2   583  GLU583      0.3649
    105  OE1       61.6570   -7.1400   19.2280 O.co2 583  GLU583     -0.2457
    106  OE2       59.6870   -7.3140   20.1780 O.co2 583  GLU583     -0.2457
    107  N         64.5080  -10.2360   20.4240 N.am  584  TYR584     -0.1976
    108  CA        64.6700  -11.6880   20.4790 C.3   584  TYR584      0.1639
    109  C         66.0570  -12.0610   19.9600 C.2   584  TYR584      0.2290
    110  O         66.6800  -11.2900   19.2330 O.2   584  TYR584     -0.2864
    111  CB        63.6190  -12.3790   19.6060 C.3   584  TYR584      0.0560
    112  CG        62.1970  -11.9820   19.9050 C.ar  584  TYR584     -0.0198
    113  CD1       61.6390  -12.2080   21.1590 C.ar  584  TYR584     -0.0009
    114  CD2       61.4030  -11.3810   18.9270 C.ar  584  TYR584     -0.0009
    115  CE1       60.3250  -11.8470   21.4370 C.ar  584  TYR584      0.0417
    116  CE2       60.0850  -11.0150   19.1940 C.ar  584  TYR584      0.0417
    117  CZ        59.5560  -11.2530   20.4520 C.ar  584  TYR584      0.1957
    118  OH        58.2570  -10.8990   20.7240 O.3   584  TYR584     -0.2866
@<TRIPOS>BOND
     1    33    34    1
     2    36    35    2
     3    35    34    1
     4    35    41   am
     5    45    42    1
     6    45    46    1
     7    42    41    1
     8    42    43    1
     9    34    37    1
    10    43    44    2
    11    37    38    1
    12    37    39    1
    13    54    52   ar
    14    38    40    1
    15    52    53   ar
    16    52    51    1
    17    47    48    1
    18    51    48    1
    19    48    49    1
    20    55    49   am
    21    55    56    1
    22    59    56    1
    23    59    60    1
    24    49    50    2
    25    56    57    1
    26    60    61   ar
    27    60    62   ar
    28    32    30   ar
    29    61    63   ar
    30    62    64   ar
    31    57    58    2
    32    63    64   ar
    33    30    31   ar
    34    30    29    1
    35    28    29    1
    36    28    25    1
    37    26    27    2
    38    26    25    1
    39    25    24    1
    40    65    66    1
    41    12    10    1
    42    69    66    1
    43    69    70    1
    44    11    10    1
    45    10     7    1
    46    24    15   am
    47    66    67    1
    48    72    70   ar
    49    72    74   ar
    50    70    71   ar
    51     9     8    2
    52    16    15    2
    53    15    14    1
    54     7     8    1
    55     7     6    1
    56    74    75   ar
    57    67    68    2
    58    71    73   ar
    59     8    13   am
    60    13    14    1
    61    75    73   ar
    62     6     3   am
    63    14    17    1
    64    17    18    1
    65    95    97   ar
    66    95    93   ar
    67     3     4    2
    68     3     2    1
    69    97    96   ar
    70     5     2    1
    71    93    92   ar
    72    18    19    1
    73     2     1    1
    74    96    94   ar
    75    19    20    1
    76    92    94   ar
    77    92    91    1
    78    80    81    1
    79    80    77    1
    80    76    77    1
    81    81    83   ar
    82    81    82   ar
    83    83    85   ar
    84    20    21    2
    85    77    78    1
    86    91    88    1
    87    22    21    1
    88    82    84   ar
    89    21    23    1
    90    85    86   ar
    91   114   116   ar
    92   114   112   ar
    93    88    87    1
    94    88    89    1
    95   116   117   ar
    96   105   104   ar
    97   110   109    2
    98    78    79    2
    99    84    86   ar
   100   111   112    1
   101   111   108    1
   102    98    99    1
   103   112   113   ar
   104   109   108    1
   105    89    90    2
   106   104   106   ar
   107   104   103    1
   108   107   108    1
   109   107   100   am
   110   117   118    1
   111   117   115   ar
   112   113   115   ar
   113    99   100    1
   114    99   102    1
   115   103   102    1
   116   100   101    2
