@<TRIPOS>MOLECULE
tmp/1mw0A01.pdb
 175 171 0 0 0
SMALL
GASTEIGER

@<TRIPOS>ATOM
      1  N         62.2860    0.8030   16.5390 N.3   362  ALA362     -0.1231
      2  CA        60.8430    0.6440   16.4010 C.3   362  ALA362      0.1694
      3  C         60.4230   -0.4820   15.4600 C.2   362  ALA362      0.2593
      4  O         59.5460   -1.2770   15.7970 O.2   362  ALA362     -0.2718
      5  CB        60.2190    1.9590   15.9390 C.3   362  ALA362      0.0304
      6  N         61.0410   -0.5490   14.2860 N.am  363  THR363     -0.1939
      7  CA        60.6880   -1.5720   13.3080 C.3   363  THR363      0.2028
      8  C         61.4440   -2.8840   13.5000 C.2   363  THR363      0.2642
      9  O         60.9930   -3.9270   13.0290 O.2   363  THR363     -0.2714
     10  CB        60.9820   -1.1080   11.8680 C.3   363  THR363      0.1808
     11  OG1       62.3990   -0.9700   11.7030 O.3   363  THR363     -0.2208
     12  CG2       60.3050    0.2220   11.5750 C.3   363  THR363      0.0379
     13  N         62.5840   -2.8160   14.1830 N.am  364  ARG364     -0.1963
     14  CA        63.4600   -3.9700   14.4060 C.3   364  ARG364      0.1729
     15  C         64.1450   -4.3620   13.1040 C.2   364  ARG364      0.2616
     16  O         64.8490   -5.3670   13.0550 O.2   364  ARG364     -0.2715
     17  CB        62.6870   -5.1890   14.9240 C.3   364  ARG364      0.0348
     18  CG        62.4570   -5.2240   16.4200 C.3   364  ARG364      0.0492
     19  CD        61.3460   -4.2850   16.8330 C.3   364  ARG364      0.2205
     20  NE        60.8630   -4.6120   18.1720 N.pl3 364  ARG364     -0.0865
     21  CZ        59.9930   -3.8760   18.8550 C.cat 364  ARG364      0.5346
     22  NH1       59.5030   -2.7580   18.3300 N.pl3 364  ARG364      0.1354
     23  NH2       59.6160   -4.2570   20.0650 N.pl3 364  ARG364      0.1354
     24  N         63.9350   -3.5690   12.0550 N.am  365  GLU365     -0.1977
     25  CA        64.5110   -3.8410   10.7360 C.3   365  GLU365      0.1602
     26  C         65.5830   -2.8190   10.3670 C.2   365  GLU365      0.2287
     27  O         65.3320   -1.6140   10.3780 O.2   365  GLU365     -0.2864
     28  CB        63.4030   -3.8280    9.6860 C.3   365  GLU365      0.0415
     29  CG        62.3140   -4.8460    9.9420 C.3   365  GLU365      0.1163
     30  CD        61.1180   -4.6450    9.0370 C.2   365  GLU365      0.3649
     31  OE1       60.4460   -3.5980    9.1640 O.co2 365  GLU365     -0.2457
     32  OE2       60.8560   -5.5300    8.1940 O.co2 365  GLU365     -0.2457
     33  N         59.0020    1.1790    0.9290 N.3   409  ILE409     -0.1231
     34  CA        58.4470    1.8900    2.0740 C.3   409  ILE409      0.1692
     35  C         57.9320    3.2760    1.7020 C.2   409  ILE409      0.2592
     36  O         58.6280    4.0530    1.0410 O.2   409  ILE409     -0.2718
     37  CB        59.4980    2.0510    3.1880 C.3   409  ILE409      0.0266
     38  CG1       60.0020    0.6740    3.6240 C.3   409  ILE409      0.0019
     39  CG2       58.8910    2.7990    4.3730 C.3   409  ILE409      0.0020
     40  CD1       61.1720    0.7180    4.5880 C.3   409  ILE409      0.0001
     41  N         56.7070    3.5710    2.1320 N.am  410  SER410     -0.1952
     42  CA        56.0740    4.8610    1.8840 C.3   410  SER410      0.1924
     43  C         56.4610    5.8280    3.0000 C.2   410  SER410      0.2314
     44  O         56.0880    5.6330    4.1620 O.2   410  SER410     -0.2863
     45  CB        54.5520    4.7130    1.8490 C.3   410  SER410      0.2116
     46  OG        53.9300    5.9880    1.9100 O.3   410  SER410     -0.2180
     47  N         53.3990    7.3270    5.1630 N.3   413  ASP413     -0.1225
     48  CA        52.7920    6.3070    6.0180 C.3   413  ASP413      0.1805
     49  C         53.7550    5.8310    7.1080 C.2   413  ASP413      0.2597
     50  O         53.3600    5.6330    8.2630 O.2   413  ASP413     -0.2718
     51  CB        52.3490    5.0850    5.2070 C.3   413  ASP413      0.1424
     52  CG        51.2690    5.4020    4.1860 C.2   413  ASP413      0.3668
     53  OD1       50.6280    6.4700    4.2760 O.co2 413  ASP413     -0.2456
     54  OD2       51.0550    4.5570    3.2920 O.co2 413  ASP413     -0.2456
     55  N         55.0170    5.6460    6.7370 N.am  414  HIS414     -0.1975
     56  CA        56.0160    5.1760    7.6860 C.3   414  HIS414      0.1656
     57  C         56.2270    6.1530    8.8360 C.2   414  HIS414      0.2291
     58  O         56.4110    5.7420    9.9790 O.2   414  HIS414     -0.2864
     59  CB        57.3450    4.9200    6.9760 C.3   414  HIS414      0.0771
     60  CG        58.2930    4.0730    7.7660 C.ar  414  HIS414      0.0820
     61  ND1       58.0130    2.7660    8.1050 N.ar  414  HIS414     -0.2267
     62  CD2       59.5120    4.3440    8.2870 C.ar  414  HIS414      0.1154
     63  CE1       59.0210    2.2670    8.7980 C.ar  414  HIS414      0.1986
     64  NE2       59.9440    3.2050    8.9240 N.ar  414  HIS414     -0.2212
     65  N         53.5310    5.9590   11.4260 N.3   417  PHE417     -0.1241
     66  CA        53.8030    4.8710   12.3510 C.3   417  PHE417      0.1605
     67  C         54.8690    5.2720   13.3680 C.2   417  PHE417      0.2264
     68  O         54.6850    5.0820   14.5680 O.2   417  PHE417     -0.2867
     69  CB        54.2820    3.6170   11.6090 C.3   417  PHE417      0.0534
     70  CG        55.0410    2.6550   12.4890 C.ar  417  PHE417     -0.0203
     71  CD1       54.3980    1.9810   13.5280 C.ar  417  PHE417     -0.0042
     72  CD2       56.4150    2.4790   12.3230 C.ar  417  PHE417     -0.0042
     73  CE1       55.1160    1.1500   14.3910 C.ar  417  PHE417     -0.0003
     74  CE2       57.1450    1.6480   13.1820 C.ar  417  PHE417     -0.0003
     75  CZ        56.4930    0.9840   14.2180 C.ar  417  PHE417     -0.0000
     76  N         54.2920    5.2880   17.3350 N.3   421  PHE421     -0.1241
     77  CA        55.0820    4.3890   18.1610 C.3   421  PHE421      0.1605
     78  C         55.8370    5.1210   19.2650 C.2   421  PHE421      0.2264
     79  O         55.7910    4.7240   20.4300 O.2   421  PHE421     -0.2867
     80  CB        56.0730    3.6070   17.2920 C.3   421  PHE421      0.0534
     81  CG        56.8960    2.6090   18.0560 C.ar  421  PHE421     -0.0203
     82  CD1       58.0500    3.0020   18.7310 C.ar  421  PHE421     -0.0042
     83  CD2       56.5160    1.2730   18.1040 C.ar  421  PHE421     -0.0042
     84  CE1       58.8150    2.0780   19.4400 C.ar  421  PHE421     -0.0003
     85  CE2       57.2770    0.3370   18.8140 C.ar  421  PHE421     -0.0003
     86  CZ        58.4290    0.7430   19.4810 C.ar  421  PHE421     -0.0000
     87  N         53.8820    6.6130   22.2040 N.3   424  ASN424     -0.1240
     88  CA        53.1430    5.5240   22.8380 C.3   424  ASN424      0.1653
     89  C         51.6720    5.4500   22.4400 C.2   424  ASN424      0.2266
     90  O         50.7860    5.3560   23.2890 O.2   424  ASN424     -0.2867
     91  CB        53.2850    5.6180   24.3660 C.3   424  ASN424      0.1155
     92  CG        52.7060    4.4100   25.0880 C.2   424  ASN424      0.2627
     93  OD1       52.8090    3.2810   24.6150 O.2   424  ASN424     -0.2716
     94  ND2       52.1130    4.6450   26.2510 N.am  424  ASN424     -0.0877
     95  N         50.7970    3.2090   19.9360 N.3   426  PHE426     -0.1227
     96  CA        50.9010    2.0190   19.1040 C.3   426  PHE426      0.1736
     97  C         51.0190    0.8340   20.0520 C.2   426  PHE426      0.2595
     98  O         51.9180    0.7870   20.8850 O.2   426  PHE426     -0.2718
     99  CB        52.1450    2.0810   18.2140 C.3   426  PHE426      0.0547
    100  CG        52.2450    0.9390   17.2420 C.ar  426  PHE426     -0.0202
    101  CD1       51.5560    0.9730   16.0360 C.ar  426  PHE426     -0.0042
    102  CD2       52.9950   -0.1870   17.5520 C.ar  426  PHE426     -0.0042
    103  CE1       51.6100   -0.0990   15.1510 C.ar  426  PHE426     -0.0003
    104  CE2       53.0560   -1.2660   16.6770 C.ar  426  PHE426     -0.0003
    105  CZ        52.3610   -1.2210   15.4720 C.ar  426  PHE426     -0.0000
    106  N         50.1050   -0.1180   19.9260 N.am  427  ASP427     -0.1960
    107  CA        50.1010   -1.2970   20.7810 C.3   427  ASP427      0.1840
    108  C         51.4690   -1.9800   20.8770 C.2   427  ASP427      0.2623
    109  O         52.0830   -2.3120   19.8620 O.2   427  ASP427     -0.2715
    110  CB        49.0590   -2.2950   20.2690 C.3   427  ASP427      0.1450
    111  CG        49.0660   -3.5930   21.0460 C.2   427  ASP427      0.3671
    112  OD1       49.5050   -4.6250   20.4900 O.co2 427  ASP427     -0.2456
    113  OD2       48.6380   -3.5750   22.2160 O.co2 427  ASP427     -0.2456
    114  N         51.9420   -2.1780   22.1040 N.am  428  GLY428     -0.1940
    115  CA        53.2200   -2.8350   22.3120 C.3   428  GLY428      0.2014
    116  C         54.4270   -1.9200   22.4200 C.2   428  GLY428      0.2640
    117  O         55.5100   -2.3650   22.8030 O.2   428  GLY428     -0.2714
    118  N         54.2510   -0.6440   22.0940 N.am  429  SER429     -0.1935
    119  CA        55.3560    0.3010   22.1510 C.3   429  SER429      0.2055
    120  C         55.9850    0.4320   23.5350 C.2   429  SER429      0.2643
    121  O         55.2890    0.4410   24.5550 O.2   429  SER429     -0.2714
    122  CB        54.9060    1.6840   21.6940 C.3   429  SER429      0.2130
    123  OG        55.9620    2.6120   21.8670 O.3   429  SER429     -0.2179
    124  N         57.3090    0.5450   23.5540 N.am  430  PHE430     -0.1973
    125  CA        58.0580    0.7020   24.7970 C.3   430  PHE430      0.1639
    126  C         58.4480    2.1690   24.9860 C.2   430  PHE430      0.2290
    127  O         58.9560    2.5570   26.0370 O.2   430  PHE430     -0.2864
    128  CB        59.3230   -0.1760   24.7710 C.3   430  PHE430      0.0560
    129  CG        60.1500   -0.0210   23.5180 C.ar  430  PHE430     -0.0200
    130  CD1       60.8750    1.1430   23.2810 C.ar  430  PHE430     -0.0042
    131  CD2       60.1830   -1.0360   22.5640 C.ar  430  PHE430     -0.0042
    132  CE1       61.6180    1.2980   22.1150 C.ar  430  PHE430     -0.0003
    133  CE2       60.9260   -0.8920   21.3900 C.ar  430  PHE430     -0.0003
    134  CZ        61.6440    0.2780   21.1660 C.ar  430  PHE430     -0.0000
    135  N         58.0640    6.2930   25.4220 N.3   432  ARG432     -0.1245
    136  CA        57.2260    7.2090   26.1870 C.3   432  ARG432      0.1563
    137  C         57.5810    8.6620   25.8620 C.2   432  ARG432      0.2260
    138  O         57.8590    9.4630   26.7560 O.2   432  ARG432     -0.2867
    139  CB        57.3980    6.9350   27.6890 C.3   432  ARG432      0.0307
    140  CG        57.0060    5.5110   28.1190 C.3   432  ARG432      0.0489
    141  CD        55.4880    5.2980   28.0890 C.3   432  ARG432      0.2205
    142  NE        55.0940    3.9490   28.5040 N.pl3 432  ARG432     -0.0865
    143  CZ        55.1010    2.8830   27.7100 C.cat 432  ARG432      0.5346
    144  NH1       55.4770    2.9950   26.4420 N.pl3 432  ARG432      0.1354
    145  NH2       54.7310    1.6970   28.1830 N.pl3 432  ARG432      0.1354
    146  N         59.4090    2.8330   32.4810 N.3   459  GLN459     -0.1245
    147  CA        58.5810    1.7610   33.0270 C.3   459  GLN459      0.1566
    148  C         59.4470    0.5610   33.4090 C.2   459  GLN459      0.2260
    149  O         58.9360   -0.5220   33.6810 O.2   459  GLN459     -0.2867
    150  CB        57.5190    1.3180   32.0150 C.3   459  GLN459      0.0367
    151  CG        58.0930    0.7550   30.7220 C.3   459  GLN459      0.0905
    152  CD        58.1380    1.7830   29.6060 C.2   459  GLN459      0.2608
    153  OE1       58.3180    2.9780   29.8540 O.2   459  GLN459     -0.2717
    154  NE2       57.9890    1.3210   28.3670 N.am  459  GLN459     -0.0878
    155  N         64.4950   -7.7940   19.8790 N.3   583  GLU583     -0.1231
    156  CA        64.4240   -8.1020   21.3040 C.3   583  GLU583      0.1699
    157  C         64.5480   -9.6150   21.4900 C.2   583  GLU583      0.2592
    158  O         64.3760  -10.1350   22.5900 O.2   583  GLU583     -0.2718
    159  CB        63.1050   -7.6050   21.9120 C.3   583  GLU583      0.0402
    160  CG        61.8500   -8.2790   21.3630 C.3   583  GLU583      0.1161
    161  CD        61.1840   -7.4780   20.2640 C.2   583  GLU583      0.3649
    162  OE1       61.8810   -7.0660   19.3090 O.co2 583  GLU583     -0.2457
    163  OE2       59.9560   -7.2680   20.3510 O.co2 583  GLU583     -0.2457
    164  N         64.8460  -10.3130   20.3960 N.am  584  TYR584     -0.1976
    165  CA        65.0150  -11.7600   20.4160 C.3   584  TYR584      0.1639
    166  C         66.4050  -12.1150   19.8900 C.2   584  TYR584      0.2290
    167  O         67.0170  -11.3370   19.1570 O.2   584  TYR584     -0.2864
    168  CB        63.9820  -12.4320   19.5150 C.3   584  TYR584      0.0560
    169  CG        62.5520  -12.0200   19.7660 C.ar  584  TYR584     -0.0198
    170  CD1       61.9040  -12.3580   20.9520 C.ar  584  TYR584     -0.0009
    171  CD2       61.8320  -11.3250   18.7930 C.ar  584  TYR584     -0.0009
    172  CE1       60.5650  -12.0190   21.1610 C.ar  584  TYR584      0.0417
    173  CE2       60.4960  -10.9790   18.9910 C.ar  584  TYR584      0.0417
    174  CZ        59.8690  -11.3320   20.1750 C.ar  584  TYR584      0.1957
    175  OH        58.5420  -11.0160   20.3560 O.3   584  TYR584     -0.2866
@<TRIPOS>BOND
     1    33    34    1
     2    36    35    2
     3    35    34    1
     4    35    41   am
     5    45    42    1
     6    45    46    1
     7    42    41    1
     8    42    43    1
     9    34    37    1
    10    43    44    2
    11    37    38    1
    12    37    39    1
    13    54    52   ar
    14    38    40    1
    15    52    53   ar
    16    52    51    1
    17    47    48    1
    18    51    48    1
    19    48    49    1
    20    55    49   am
    21    55    56    1
    22    59    56    1
    23    59    60    1
    24    49    50    2
    25    56    57    1
    26    60    61   ar
    27    60    62   ar
    28    61    63   ar
    29    32    30   ar
    30    62    64   ar
    31    63    64   ar
    32    57    58    2
    33    30    31   ar
    34    30    29    1
    35    28    29    1
    36    28    25    1
    37    26    27    2
    38    26    25    1
    39    25    24    1
    40    65    66    1
    41    12    10    1
    42    69    66    1
    43    69    70    1
    44    11    10    1
    45    10     7    1
    46    24    15   am
    47    72    70   ar
    48    72    74   ar
    49    66    67    1
    50    70    71   ar
    51     9     8    2
    52    16    15    2
    53    15    14    1
    54    74    75   ar
    55     7     8    1
    56     7     6    1
    57    67    68    2
    58     8    13   am
    59    71    73   ar
    60    13    14    1
    61    75    73   ar
    62     6     3   am
    63    14    17    1
    64    17    18    1
    65   103   105   ar
    66   103   101   ar
    67     3     4    2
    68     3     2    1
    69   105   104   ar
    70     5     2    1
    71   101   100   ar
    72     2     1    1
    73    18    19    1
    74   104   102   ar
    75    19    20    1
    76   100   102   ar
    77   100    99    1
    78    80    81    1
    79    80    77    1
    80    76    77    1
    81    81    83   ar
    82    81    82   ar
    83    83    85   ar
    84    77    78    1
    85    20    21    2
    86    99    96    1
    87    22    21    1
    88    82    84   ar
    89   171   173   ar
    90   171   169   ar
    91    85    86   ar
    92    21    23    1
    93   173   174   ar
    94    96    95    1
    95    96    97    1
    96   167   166    2
    97    78    79    2
    98   162   161   ar
    99    84    86   ar
   100   168   169    1
   101   168   165    1
   102   169   170   ar
   103   109   108    2
   104   155   156    1
   105   166   165    1
   106   106    97   am
   107   106   107    1
   108    97    98    2
   109   174   175    1
   110   174   172   ar
   111   161   163   ar
   112   161   160    1
   113   110   107    1
   114   110   111    1
   115   164   165    1
   116   164   157   am
   117   112   111   ar
   118   107   108    1
   119   108   114   am
   120   170   172   ar
   121   111   113   ar
   122   134   133   ar
   123   134   132   ar
   124   156   157    1
   125   156   159    1
   126   160   159    1
   127   133   131   ar
   128   157   158    2
   129   122   123    1
   130   122   119    1
   131   118   119    1
   132   118   116   am
   133   114   115    1
   134   132   130   ar
   135   119   120    1
   136    87    88    1
   137   115   116    1
   138   116   117    2
   139    89    88    1
   140    89    90    2
   141   131   129   ar
   142    88    91    1
   143   130   129   ar
   144   129   128    1
   145   120   124   am
   146   120   121    2
   147   124   125    1
   148    91    92    1
   149    93    92    2
   150   128   125    1
   151   125   126    1
   152   126   127    2
   153    92    94   am
   154   135   136    1
   155   137   136    1
   156   137   138    2
   157   136   139    1
   158   144   143    1
   159   139   140    1
   160   143   145    1
   161   143   142    2
   162   141   140    1
   163   141   142    1
   164   154   152   am
   165   152   153    2
   166   152   151    1
   167   151   150    1
   168   150   147    1
   169   146   147    1
   170   147   148    1
   171   148   149    2
