@<TRIPOS>MOLECULE
tmp/1mw0A02.pdb
 96 92 0 0 0
SMALL
GASTEIGER

@<TRIPOS>ATOM
      1  N         82.6600    0.3680    5.6520 N.3   557  VAL557     -0.1231
      2  CA        82.1600   -0.4790    4.5790 C.3   557  VAL557      0.1692
      3  C         81.1400   -1.3710    5.2740 C.2   557  VAL557      0.2593
      4  O         81.4730   -2.0550    6.2450 O.2   557  VAL557     -0.2718
      5  CB        83.2780   -1.3660    3.9670 C.3   557  VAL557      0.0266
      6  CG1       82.6880   -2.2860    2.9110 C.3   557  VAL557      0.0020
      7  CG2       84.3690   -0.4940    3.3530 C.3   557  VAL557      0.0020
      8  N         79.8960   -1.3460    4.8070 N.am  558  THR558     -0.1939
      9  CA        78.8710   -2.1670    5.4270 C.3   558  THR558      0.2028
     10  C         79.0710   -3.6470    5.1190 C.2   558  THR558      0.2642
     11  O         79.6670   -4.0140    4.1040 O.2   558  THR558     -0.2714
     12  CB        77.4470   -1.7280    4.9950 C.3   558  THR558      0.1808
     13  OG1       77.3230   -1.7930    3.5660 O.3   558  THR558     -0.2208
     14  CG2       77.1730   -0.2980    5.4720 C.3   558  THR558      0.0379
     15  N         78.5820   -4.4890    6.0220 N.am  559  PHE559     -0.1959
     16  CA        78.6880   -5.9380    5.8940 C.3   559  PHE559      0.1771
     17  C         77.2560   -6.4750    5.8380 C.2   559  PHE559      0.2619
     18  O         76.4620   -6.2140    6.7390 O.2   559  PHE559     -0.2715
     19  CB        79.4260   -6.5020    7.1210 C.3   559  PHE559      0.0574
     20  CG        79.5870   -8.0080    7.1180 C.ar  559  PHE559     -0.0200
     21  CD1       80.7070   -8.6060    6.5340 C.ar  559  PHE559     -0.0042
     22  CD2       78.6160   -8.8270    7.6970 C.ar  559  PHE559     -0.0042
     23  CE1       80.8600  -10.0020    6.5260 C.ar  559  PHE559     -0.0003
     24  CE2       78.7560  -10.2250    7.6960 C.ar  559  PHE559     -0.0003
     25  CZ        79.8840  -10.8110    7.1070 C.ar  559  PHE559     -0.0000
     26  N         76.9160   -7.2010    4.7780 N.am  560  ASN560     -0.1972
     27  CA        75.5710   -7.7630    4.6670 C.3   560  ASN560      0.1688
     28  C         75.4790   -8.9590    5.6040 C.2   560  ASN560      0.2292
     29  O         76.1110   -9.9900    5.3810 O.2   560  ASN560     -0.2864
     30  CB        75.2800   -8.1900    3.2250 C.3   560  ASN560      0.1181
     31  CG        75.2930   -7.0180    2.2560 C.2   560  ASN560      0.2629
     32  OD1       74.5500   -6.0470    2.4240 O.2   560  ASN560     -0.2716
     33  ND2       76.1420   -7.1020    1.2360 N.am  560  ASN560     -0.0877
     34  N         72.7410  -10.7030    6.2570 N.3   562  ASN562     -0.1240
     35  CA        71.7170  -11.6350    5.7920 C.3   562  ASN562      0.1653
     36  C         70.6650  -11.9230    6.8580 C.2   562  ASN562      0.2266
     37  O         69.9620  -12.9370    6.8160 O.2   562  ASN562     -0.2867
     38  CB        72.3520  -12.9290    5.2760 C.3   562  ASN562      0.1155
     39  CG        73.0710  -12.7220    3.9510 C.2   562  ASN562      0.2627
     40  OD1       72.5500  -12.0560    3.0530 O.2   562  ASN562     -0.2716
     41  ND2       74.2660  -13.2880    3.8210 N.am  562  ASN562     -0.0877
     42  N         82.2550   -2.6060    8.7610 N.3   570  ILE570     -0.1245
     43  CA        83.6680   -2.7990    9.0500 C.3   570  ILE570      0.1561
     44  C         84.4550   -1.4990    9.0270 C.2   570  ILE570      0.2260
     45  O         84.3180   -0.6880    8.1100 O.2   570  ILE570     -0.2867
     46  CB        84.3110   -3.7810    8.0370 C.3   570  ILE570      0.0252
     47  CG1       83.5960   -5.1310    8.0950 C.3   570  ILE570      0.0019
     48  CG2       85.8040   -3.9510    8.3390 C.3   570  ILE570      0.0019
     49  CD1       84.0860   -6.1250    7.0480 C.3   570  ILE570      0.0001
     50  N         88.9620   -2.1650    7.7820 N.3   573  ASN573     -0.1240
     51  CA        89.1720   -3.5780    7.4750 C.3   573  ASN573      0.1653
     52  C         89.7800   -4.3350    8.6430 C.2   573  ASN573      0.2266
     53  O         90.5020   -5.3160    8.4380 O.2   573  ASN573     -0.2867
     54  CB        90.0940   -3.7450    6.2690 C.3   573  ASN573      0.1155
     55  CG        89.3310   -3.9450    4.9860 C.2   573  ASN573      0.2627
     56  OD1       88.9290   -2.9810    4.3300 O.2   573  ASN573     -0.2716
     57  ND2       89.1040   -5.2050    4.6270 N.am  573  ASN573     -0.0877
     58  N         77.7880  -19.5190    7.1150 N.3   591  HIS591     -0.1226
     59  CA        77.8960  -19.3240    5.6750 C.3   591  HIS591      0.1752
     60  C         78.1680  -17.8520    5.3750 C.2   591  HIS591      0.2596
     61  O         79.0470  -17.5170    4.5830 O.2   591  HIS591     -0.2718
     62  CB        76.6090  -19.7760    4.9820 C.3   591  HIS591      0.0759
     63  CG        76.6980  -19.7840    3.4870 C.ar  591  HIS591      0.0818
     64  ND1       76.5830  -18.6400    2.7260 N.ar  591  HIS591     -0.2268
     65  CD2       76.9300  -20.7940    2.6150 C.ar  591  HIS591      0.1154
     66  CE1       76.7400  -18.9450    1.4500 C.ar  591  HIS591      0.1986
     67  NE2       76.9510  -20.2460    1.3550 N.ar  591  HIS591     -0.2212
     68  N         77.4160  -16.9730    6.0210 N.am  592  THR592     -0.1953
     69  CA        77.5940  -15.5400    5.8190 C.3   592  THR592      0.1897
     70  C         78.9870  -15.0930    6.2630 C.2   592  THR592      0.2313
     71  O         79.5710  -14.1810    5.6770 O.2   592  THR592     -0.2863
     72  CB        76.5290  -14.7390    6.6090 C.3   592  THR592      0.1794
     73  OG1       75.2270  -15.0290    6.0840 O.3   592  THR592     -0.2208
     74  CG2       76.7940  -13.2340    6.5080 C.3   592  THR592      0.0378
     75  N         81.9010  -16.8480    6.1690 N.3   594  GLN594     -0.1231
     76  CA        83.0080  -17.5850    5.5570 C.3   594  GLN594      0.1698
     77  C         84.2890  -16.8260    5.2260 C.2   594  GLN594      0.2592
     78  O         85.3730  -17.4060    5.2590 O.2   594  GLN594     -0.2718
     79  CB        82.5320  -18.2870    4.2850 C.3   594  GLN594      0.0381
     80  CG        81.4950  -19.3650    4.5180 C.3   594  GLN594      0.0905
     81  CD        80.9790  -19.9310    3.2150 C.2   594  GLN594      0.2608
     82  OE1       81.5600  -20.8610    2.6530 O.2   594  GLN594     -0.2717
     83  NE2       79.8950  -19.3510    2.7100 N.am  594  GLN594     -0.0878
     84  N         84.1810  -15.5440    4.8940 N.am  595  ALA595     -0.1966
     85  CA        85.3720  -14.7750    4.5410 C.3   595  ALA595      0.1728
     86  C         86.1200  -14.2310    5.7540 C.2   595  ALA595      0.2616
     87  O         87.2520  -13.7690    5.6350 O.2   595  ALA595     -0.2715
     88  CB        84.9900  -13.6290    3.6120 C.3   595  ALA595      0.0334
     89  N         85.4810  -14.2990    6.9150 N.am  596  MET596     -0.1977
     90  CA        86.0530  -13.7980    8.1610 C.3   596  MET596      0.1605
     91  C         87.0470  -14.7500    8.8180 C.2   596  MET596      0.2287
     92  O         87.0910  -15.9400    8.5050 O.2   596  MET596     -0.2864
     93  CB        84.9280  -13.4880    9.1500 C.3   596  MET596      0.0413
     94  CG        84.0380  -12.3350    8.7280 C.3   596  MET596      0.0598
     95  SD        84.9670  -10.7920    8.5840 S.3   596  MET596     -0.1393
     96  CE        85.1950  -10.6850    6.7980 C.3   596  MET596      0.0692
@<TRIPOS>BOND
     1    33    31   am
     2    67    66   ar
     3    67    65   ar
     4    66    64   ar
     5    31    32    2
     6    31    30    1
     7    65    63   ar
     8    82    81    2
     9    83    81   am
    10    64    63   ar
    11     6     5    1
    12    40    39    2
    13    81    80    1
    14    30    27    1
    15     7     5    1
    16    63    62    1
    17    13    12    1
    18    88    85    1
    19    41    39   am
    20    39    38    1
    21     5     2    1
    22    11    10    2
    23    79    80    1
    24    79    76    1
    25    56    55    2
    26    85    84    1
    27    85    86    1
    28     2     3    1
    29     2     1    1
    30    61    60    2
    31    57    55   am
    32    27    26    1
    33    27    28    1
    34    26    17   am
    35     8     3   am
    36     8     9    1
    37    84    77   am
    38    62    59    1
    39    55    54    1
    40    12     9    1
    41    12    14    1
    42    10     9    1
    43    10    15   am
    44    77    78    2
    45    77    76    1
    46     3     4    2
    47    38    35    1
    48    60    59    1
    49    60    68   am
    50    29    28    2
    51    76    75    1
    52    87    86    2
    53    59    58    1
    54    71    70    2
    55    86    89   am
    56    35    34    1
    57    35    36    1
    58    69    68    1
    59    69    70    1
    60    69    72    1
    61    17    16    1
    62    17    18    2
    63    16    15    1
    64    16    19    1
    65    73    72    1
    66    54    51    1
    67    74    72    1
    68    23    21   ar
    69    23    25   ar
    70    21    20   ar
    71    96    95    1
    72    37    36    2
    73    89    90    1
    74    49    47    1
    75    25    24   ar
    76    20    19    1
    77    20    22   ar
    78    51    50    1
    79    51    52    1
    80    24    22   ar
    81    46    47    1
    82    46    48    1
    83    46    43    1
    84    45    44    2
    85    90    91    1
    86    90    93    1
    87    53    52    2
    88    92    91    2
    89    95    94    1
    90    94    93    1
    91    42    43    1
    92    44    43    1
