@<TRIPOS>MOLECULE
tmp/1mw0A03.pdb
 86 80 0 0 0
SMALL
GASTEIGER

@<TRIPOS>ATOM
      1  N         54.0040    8.1860    9.9660 N.3   416  GLN416     -0.1245
      2  CA        52.7930    8.1710   10.7790 C.3   416  GLN416      0.1566
      3  C         53.0000    7.1040   11.8460 C.2   416  GLN416      0.2260
      4  O         52.6880    7.3130   13.0210 O.2   416  GLN416     -0.2867
      5  CB        51.5630    7.8310    9.9270 C.3   416  GLN416      0.0367
      6  CG        51.1570    8.9460    8.9670 C.3   416  GLN416      0.0905
      7  CD        50.5540   10.1480    9.6840 C.2   416  GLN416      0.2608
      8  OE1       50.7350   11.2940    9.2670 O.2   416  GLN416     -0.2717
      9  NE2       49.8210    9.8850   10.7610 N.am  416  GLN416     -0.0878
     10  N         55.8360    8.1760   14.4710 N.3   419  ASN419     -0.1225
     11  CA        55.3490    9.1430   15.4370 C.3   419  ASN419      0.1785
     12  C         54.4270    8.4950   16.4630 C.2   419  ASN419      0.2597
     13  O         54.5520    8.7530   17.6580 O.2   419  ASN419     -0.2718
     14  CB        54.6560   10.2940   14.7110 C.3   419  ASN419      0.1169
     15  CG        55.6530   11.3020   14.1680 C.2   419  ASN419      0.2627
     16  OD1       55.5310   11.7860   13.0380 O.2   419  ASN419     -0.2716
     17  ND2       56.6500   11.6260   14.9790 N.am  419  ASN419     -0.0877
     18  N         53.5160    7.6420   16.0020 N.am  420  ARG420     -0.1979
     19  CA        52.5980    6.9560   16.9070 C.3   420  ARG420      0.1597
     20  C         53.3600    6.0640   17.8730 C.2   420  ARG420      0.2287
     21  O         53.1110    6.0700   19.0790 O.2   420  ARG420     -0.2864
     22  CB        51.6090    6.1010   16.1150 C.3   420  ARG420      0.0334
     23  CG        50.5360    6.9010   15.4240 C.3   420  ARG420      0.0492
     24  CD        49.5650    6.0030   14.6850 C.3   420  ARG420      0.2205
     25  NE        48.2950    6.6890   14.4950 N.pl3 420  ARG420     -0.0865
     26  CZ        47.5000    7.0560   15.4960 C.cat 420  ARG420      0.5346
     27  NH1       47.8490    6.7920   16.7510 N.pl3 420  ARG420      0.1354
     28  NH2       46.3650    7.6960   15.2460 N.pl3 420  ARG420      0.1354
     29  N         55.2790    8.0600   20.6560 N.3   423  VAL423     -0.1245
     30  CA        54.4970    8.8640   21.5840 C.3   423  VAL423      0.1561
     31  C         53.5600    7.9000   22.3160 C.2   423  VAL423      0.2260
     32  O         52.5890    8.3050   22.9490 O.2   423  VAL423     -0.2867
     33  CB        53.6810    9.9830   20.8680 C.3   423  VAL423      0.0252
     34  CG1       54.6380   10.9770   20.2170 C.3   423  VAL423      0.0019
     35  CG2       52.7230    9.3860   19.8450 C.3   423  VAL423      0.0019
     36  N         51.4210    5.5020   21.1380 N.3   425  ARG425     -0.1245
     37  CA        50.0710    5.3990   20.6090 C.3   425  ARG425      0.1563
     38  C         50.0670    4.2660   19.5940 C.2   425  ARG425      0.2260
     39  O         49.4430    4.3480   18.5380 O.2   425  ARG425     -0.2867
     40  CB        49.6440    6.7170   19.9650 C.3   425  ARG425      0.0307
     41  CG        49.1050    7.7210   20.9730 C.3   425  ARG425      0.0489
     42  CD        49.3050    9.1490   20.5000 C.3   425  ARG425      0.2205
     43  NE        48.9400    9.3290   19.0970 N.pl3 425  ARG425     -0.0865
     44  CZ        47.7010    9.2380   18.6210 C.cat 425  ARG425      0.5346
     45  NH1       46.6890    8.9700   19.4390 N.pl3 425  ARG425      0.1354
     46  NH2       47.4750    9.4180   17.3250 N.pl3 425  ARG425      0.1354
     47  N         54.5350   14.4640   21.6010 N.3   435  PRO435     -0.2116
     48  CA        54.4870   15.1730   20.3170 C.3   435  PRO435      0.1372
     49  C         55.1300   16.5520   20.3470 C.2   435  PRO435      0.2244
     50  O         55.1820   17.2070   21.3900 O.2   435  PRO435     -0.2868
     51  CB        52.9870   15.2720   20.0240 C.3   435  PRO435      0.0268
     52  CG        52.3920   14.1270   20.7990 C.3   435  PRO435      0.0207
     53  CD        53.1770   14.1610   22.0820 C.3   435  PRO435      0.0892
     54  N         52.9410   19.1420   15.9980 N.3   438  TYR438     -0.1241
     55  CA        52.0590   18.3510   15.1540 C.3   438  TYR438      0.1605
     56  C         51.3680   19.3500   14.2380 C.2   438  TYR438      0.2264
     57  O         50.7660   20.3140   14.7090 O.2   438  TYR438     -0.2867
     58  CB        50.9970   17.6180   15.9730 C.3   438  TYR438      0.0534
     59  CG        49.8910   17.0550   15.1090 C.ar  438  TYR438     -0.0201
     60  CD1       50.1810   16.1960   14.0510 C.ar  438  TYR438     -0.0009
     61  CD2       48.5560   17.4040   15.3260 C.ar  438  TYR438     -0.0009
     62  CE1       49.1760   15.6960   13.2280 C.ar  438  TYR438      0.0417
     63  CE2       47.5400   16.9100   14.5040 C.ar  438  TYR438      0.0417
     64  CZ        47.8610   16.0570   13.4570 C.ar  438  TYR438      0.1957
     65  OH        46.8740   15.5680   12.6260 O.3   438  TYR438     -0.2866
     66  N         50.0610   16.6700    8.5410 N.3   443  GLY443     -0.1225
     67  CA        50.1800   15.3650    9.1630 C.3   443  GLY443      0.1811
     68  C         51.5670   15.1420    9.7370 C.2   443  GLY443      0.2280
     69  O         51.8530   14.0870   10.3050 O.2   443  GLY443     -0.2866
     70  N         54.8100   15.5630   12.2400 N.3   445  CYS445     -0.1221
     71  CA        54.9840   15.6720   13.6820 C.3   445  CYS445      0.1808
     72  C         56.3830   15.2130   14.0750 C.2   445  CYS445      0.2601
     73  O         56.9800   14.3780   13.3950 O.2   445  CYS445     -0.2717
     74  CB        53.9240   14.8330   14.4110 C.3   445  CYS445      0.0970
     75  SG        53.8630   15.1120   16.2140 S.3   445  CYS445     -0.0800
     76  N         56.9140   15.7840   15.1510 N.am  446  ARG446     -0.1979
     77  CA        58.2340   15.4090   15.6450 C.3   446  ARG446      0.1597
     78  C         58.0840   14.8870   17.0700 C.2   446  ARG446      0.2287
     79  O         57.0400   15.0780   17.6920 O.2   446  ARG446     -0.2864
     80  CB        59.1950   16.6000   15.5840 C.3   446  ARG446      0.0334
     81  CG        59.5640   16.9930   14.1520 C.3   446  ARG446      0.0492
     82  CD        58.9570   18.3250   13.7280 C.3   446  ARG446      0.2205
     83  NE        59.7420   19.4720   14.1930 N.pl3 446  ARG446     -0.0865
     84  CZ        59.4930   20.7370   13.8540 C.cat 446  ARG446      0.5346
     85  NH1       58.4750   21.0270   13.0520 N.pl3 446  ARG446      0.1354
     86  NH2       60.2740   21.7130   14.2930 N.pl3 446  ARG446      0.1354
@<TRIPOS>BOND
     1    66    67    1
     2     6     7    1
     3     6     5    1
     4    67    68    1
     5     8     7    2
     6     7     9   am
     7    68    69    2
     8     5     2    1
     9     1     2    1
    10     2     3    1
    11     3     4    2
    12    70    71    1
    13    65    64    1
    14    16    15    2
    15    85    84    1
    16    62    64   ar
    17    62    60   ar
    18    73    72    2
    19    64    63   ar
    20    71    72    1
    21    71    74    1
    22    82    81    1
    23    82    83    1
    24    84    83    2
    25    84    86    1
    26    60    59   ar
    27    72    76   am
    28    81    80    1
    29    15    14    1
    30    15    17   am
    31    56    57    2
    32    56    55    1
    33    74    75    1
    34    10    11    1
    35    25    24    1
    36    25    26    2
    37    63    61   ar
    38    24    23    1
    39    14    11    1
    40    59    61   ar
    41    59    58    1
    42    76    77    1
    43    55    58    1
    44    55    54    1
    45    28    26    1
    46    23    22    1
    47    11    12    1
    48    26    27    1
    49    80    77    1
    50    77    78    1
    51    18    12   am
    52    18    19    1
    53    22    19    1
    54    12    13    2
    55    19    20    1
    56    78    79    2
    57    46    44    1
    58    20    21    2
    59    39    38    2
    60    44    43    2
    61    44    45    1
    62    43    42    1
    63    38    37    1
    64    35    33    1
    65    40    37    1
    66    40    41    1
    67    51    48    1
    68    51    52    1
    69    34    33    1
    70    48    49    1
    71    48    47    1
    72    49    50    2
    73    42    41    1
    74    37    36    1
    75    29    30    1
    76    52    53    1
    77    33    30    1
    78    30    31    1
    79    47    53    1
    80    31    32    2
