@<TRIPOS>MOLECULE
tmp/1mweA02.pdb
 77 75 0 0 0
SMALL
GASTEIGER

@<TRIPOS>ATOM
      1  N         15.8490   33.9130   67.4150 N.3   286  SER286     -0.1202
      2  CA        16.8660   34.0090   68.4650 C.3   286  SER286      0.2020
      3  C         18.2690   34.0650   67.8620 C.2   286  SER286      0.2619
      4  O         18.5390   33.4010   66.8620 O.2   286  SER286     -0.2717
      5  CB        16.7700   32.7870   69.3830 C.3   286  SER286      0.2103
      6  OG        17.9100   32.6420   70.2230 O.3   286  SER286     -0.2182
      7  N         19.1640   34.8660   68.4470 N.am  287  ILE287     -0.1965
      8  CA        20.5540   34.9150   67.9680 C.3   287  ILE287      0.1727
      9  C         21.3510   33.9440   68.8440 C.2   287  ILE287      0.2616
     10  O         22.5170   33.6870   68.6000 O.2   287  ILE287     -0.2715
     11  CB        21.2330   36.3620   68.0420 C.3   287  ILE287      0.0290
     12  CG1       21.4700   36.8070   69.5070 C.3   287  ILE287      0.0022
     13  CG2       20.4210   37.4140   67.2500 C.3   287  ILE287      0.0023
     14  CD1       22.2810   38.0970   69.6460 C.3   287  ILE287      0.0001
     15  N         20.7080   33.4090   69.8790 N.am  288  ALA288     -0.1963
     16  CA        21.3560   32.4850   70.8090 C.3   288  ALA288      0.1728
     17  C         21.1040   30.9920   70.5660 C.2   288  ALA288      0.2616
     18  O         22.0080   30.1790   70.7050 O.2   288  ALA288     -0.2715
     19  CB        20.9600   32.8370   72.2560 C.3   288  ALA288      0.0334
     20  N         19.8780   30.6290   70.2190 N.am  289  SER289     -0.1950
     21  CA        19.5510   29.2240   70.0300 C.3   289  SER289      0.1924
     22  C         18.5810   29.0030   68.8650 C.2   289  SER289      0.2314
     23  O         18.1620   29.9650   68.1970 O.2   289  SER289     -0.2863
     24  CB        18.9870   28.6330   71.3350 C.3   289  SER289      0.2116
     25  OG        17.7710   29.2510   71.6940 O.3   289  SER289     -0.2180
     26  N         15.6230   28.7970   68.0840 N.3   291  SER291     -0.1217
     27  CA        14.3720   29.2660   68.6060 C.3   291  SER291      0.1889
     28  C         13.7740   30.2190   67.5970 C.2   291  SER291      0.2288
     29  O         14.4440   31.1680   67.1290 O.2   291  SER291     -0.2866
     30  CB        14.6510   29.9760   69.9470 C.3   291  SER291      0.2089
     31  OG        13.4780   30.4950   70.5430 O.3   291  SER291     -0.2183
     32  N          9.3130   33.0120   68.4710 N.3   318  ASN318     -0.1225
     33  CA        10.5490   32.8760   69.2390 C.3   318  ASN318      0.1785
     34  C         10.2820   32.1890   70.5790 C.2   318  ASN318      0.2598
     35  O         11.1930   31.9340   71.3540 O.2   318  ASN318     -0.2718
     36  CB        11.2150   34.2500   69.4480 C.3   318  ASN318      0.1169
     37  CG        12.6930   34.1340   69.8440 C.2   318  ASN318      0.2627
     38  OD1       13.2550   35.0320   70.4970 O.2   318  ASN318     -0.2716
     39  ND2       13.3320   33.0540   69.4240 N.am  318  ASN318     -0.0877
     40  N          9.0200   31.8910   70.8540 N.am  319  THR319     -0.1939
     41  CA         8.6640   31.1820   72.0720 C.3   319  THR319      0.2028
     42  C          8.5030   29.6930   71.7520 C.2   319  THR319      0.2642
     43  O          7.9880   28.9230   72.5540 O.2   319  THR319     -0.2714
     44  CB         7.3810   31.7490   72.6770 C.3   319  THR319      0.1808
     45  OG1        6.4730   32.0870   71.6260 O.3   319  THR319     -0.2208
     46  CG2        7.7000   33.0070   73.4780 C.3   319  THR319      0.0379
     47  N          8.9270   29.2970   70.5550 N.am  320  ASP320     -0.1957
     48  CA         8.8710   27.8970   70.1430 C.3   320  ASP320      0.1840
     49  C         10.2160   27.4740   69.5520 C.2   320  ASP320      0.2622
     50  O         10.9590   28.2840   68.9940 O.2   320  ASP320     -0.2715
     51  CB         7.7390   27.6650   69.1230 C.3   320  ASP320      0.1450
     52  CG         6.3610   27.6720   69.7580 C.2   320  ASP320      0.3671
     53  OD1        6.0840   26.7910   70.6030 O.co2 320  ASP320     -0.2456
     54  OD2        5.5490   28.5510   69.4150 O.co2 320  ASP320     -0.2456
     55  N         10.5290   26.2000   69.7090 N.am  321  TRP321     -0.1974
     56  CA        11.7620   25.6200   69.1870 C.3   321  TRP321      0.1640
     57  C         11.7230   25.3780   67.6760 C.2   321  TRP321      0.2290
     58  O         10.6920   24.9590   67.1270 O.2   321  TRP321     -0.2864
     59  CB        12.0400   24.3000   69.8990 C.3   321  TRP321      0.0576
     60  CG        12.2150   24.5000   71.3550 C.ar  321  TRP321      0.0006
     61  CD1       11.4800   23.9270   72.3580 C.ar  321  TRP321      0.0946
     62  CD2       13.1930   25.3420   71.9980 C.ar  321  TRP321      0.0152
     63  NE1       11.9500   24.3410   73.5840 N.ar  321  TRP321     -0.2442
     64  CE2       12.9920   25.2160   73.3970 C.ar  321  TRP321      0.0810
     65  CE3       14.2170   26.1850   71.5330 C.ar  321  TRP321      0.0012
     66  CZ2       13.7820   25.9130   74.3400 C.ar  321  TRP321      0.0191
     67  CZ3       15.0160   26.8850   72.4850 C.ar  321  TRP321      0.0001
     68  CH2       14.7850   26.7380   73.8620 C.ar  321  TRP321      0.0015
     69  N         17.5210   21.3020   74.7930 N.3   352  LYS352     -0.1245
     70  CA        16.7030   22.3590   75.3470 C.3   352  LYS352      0.1561
     71  C         15.6000   21.9170   76.2880 C.2   352  LYS352      0.2260
     72  O         15.2030   22.6660   77.1600 O.2   352  LYS352     -0.2867
     73  CB        16.1430   23.2210   74.2120 C.3   352  LYS352      0.0271
     74  CG        17.2150   23.8880   73.3950 C.3   352  LYS352      0.0035
     75  CD        18.0900   24.7560   74.2700 C.3   352  LYS352      0.0206
     76  CE        19.2340   25.3210   73.4800 C.3   352  LYS352      0.1093
     77  NZ        19.6780   26.5460   74.1410 N.3   352  LYS352     -0.1314
@<TRIPOS>BOND
     1     4     3    2
     2    58    57    2
     3    29    28    2
     4    13    11    1
     5     1     2    1
     6    28    27    1
     7    57    56    1
     8     3     7   am
     9     3     2    1
    10     8    11    1
    11     8     7    1
    12     8     9    1
    13    11    12    1
    14    26    27    1
    15    23    22    2
    16     2     5    1
    17    32    33    1
    18    10     9    2
    19    27    30    1
    20     9    15   am
    21    22    21    1
    22    50    49    2
    23    51    52    1
    24    51    48    1
    25    56    55    1
    26    56    59    1
    27    33    36    1
    28    33    34    1
    29     5     6    1
    30    54    52   ar
    31    39    37   am
    32    36    37    1
    33    12    14    1
    34    49    55   am
    35    49    48    1
    36    52    53   ar
    37    37    38    2
    38    15    16    1
    39    59    60    1
    40    30    31    1
    41    21    20    1
    42    21    24    1
    43    48    47    1
    44    20    17   am
    45    47    42   am
    46    17    18    2
    47    17    16    1
    48    34    40   am
    49    34    35    2
    50    16    19    1
    51    40    41    1
    52    24    25    1
    53    60    62   ar
    54    60    61   ar
    55    65    62   ar
    56    65    67   ar
    57    45    44    1
    58    42    41    1
    59    42    43    2
    60    62    64   ar
    61    41    44    1
    62    61    63   ar
    63    67    68   ar
    64    44    46    1
    65    74    73    1
    66    74    75    1
    67    64    63   ar
    68    64    66   ar
    69    76    77    1
    70    76    75    1
    71    68    66   ar
    72    73    70    1
    73    69    70    1
    74    70    71    1
    75    71    72    2
