@<TRIPOS>MOLECULE
tmp/1mwmB00.pdb
 198 183 0 0 0
SMALL
GASTEIGER

@<TRIPOS>ATOM
      1  N         -7.8950   33.8750    3.0250 N.3     6  ASP6       -0.1239
      2  CA        -8.2010   33.6470    1.6330 C.3     6  ASP6        0.1674
      3  C         -9.0500   34.8560    1.2950 C.2     6  ASP6        0.2266
      4  O        -10.2550   34.8880    1.5410 O.2     6  ASP6       -0.2867
      5  CB        -8.9920   32.3550    1.4450 C.3     6  ASP6        0.1410
      6  CG        -9.5650   32.2260    0.0440 C.2     6  ASP6        0.3668
      7  OD1       -9.1490   32.9890   -0.8580 O.co2   6  ASP6       -0.2456
      8  OD2      -10.4330   31.3570   -0.1620 O.co2   6  ASP6       -0.2456
      9  N        -10.7550   36.4390   -1.2030 N.3     8  GLY8       -0.1210
     10  CA       -11.3830   36.3860   -2.5120 C.3     8  GLY8        0.1956
     11  C        -12.0960   37.7070   -2.7010 C.2     8  GLY8        0.2613
     12  O        -12.3730   38.3820   -1.7180 O.2     8  GLY8       -0.2717
     13  N        -12.4080   38.0790   -3.9390 N.am    9  SER9       -0.1938
     14  CA       -13.0600   39.3620   -4.2150 C.3     9  SER9        0.2055
     15  C        -14.5540   39.4350   -3.9110 C.2     9  SER9        0.2644
     16  O        -15.1720   40.4780   -4.1030 O.2     9  SER9       -0.2714
     17  CB       -12.8170   39.7590   -5.6690 C.3     9  SER9        0.2130
     18  OG       -13.3050   38.7470   -6.5260 O.3     9  SER9       -0.2179
     19  N        -15.1390   38.3330   -3.4560 N.am   10  THR10      -0.1936
     20  CA       -16.5530   38.3330   -3.0830 C.3    10  THR10       0.2028
     21  C        -16.6050   38.2720   -1.5410 C.2    10  THR10       0.2642
     22  O        -17.2640   39.0920   -0.8940 O.2    10  THR10      -0.2714
     23  CB       -17.3180   37.1220   -3.7040 C.3    10  THR10       0.1808
     24  OG1      -17.3970   37.2880   -5.1210 O.3    10  THR10      -0.2208
     25  CG2      -18.7260   37.0330   -3.1610 C.3    10  THR10       0.0379
     26  N        -15.9020   37.3000   -0.9590 N.am   11  ASN11      -0.1971
     27  CA       -15.8440   37.1470    0.4940 C.3    11  ASN11       0.1688
     28  C        -14.4080   36.8810    0.9300 C.2    11  ASN11       0.2292
     29  O        -13.6370   36.2600    0.1960 O.2    11  ASN11      -0.2864
     30  CB       -16.7100   35.9690    0.9730 C.3    11  ASN11       0.1181
     31  CG       -18.1920   36.2980    1.0120 C.2    11  ASN11       0.2629
     32  OD1      -18.6000   37.3180    1.5720 O.2    11  ASN11      -0.2716
     33  ND2      -19.0080   35.4240    0.4310 N.am   11  ASN11      -0.0877
     34  N        -12.2480   34.9340    3.6230 N.3    13  LYS13      -0.1245
     35  CA       -12.3880   33.8750    4.6130 C.3    13  LYS13       0.1561
     36  C        -11.1420   33.8320    5.4620 C.2    13  LYS13       0.2260
     37  O        -10.0240   33.8580    4.9470 O.2    13  LYS13      -0.2867
     38  CB       -12.6300   32.5180    3.9470 C.3    13  LYS13       0.0271
     39  CG       -14.0620   32.3540    3.4660 C.3    13  LYS13       0.0035
     40  CD       -14.1590   32.2670    1.9550 C.3    13  LYS13       0.0206
     41  CE       -13.4530   33.4080    1.2710 C.3    13  LYS13       0.1093
     42  NZ       -13.4980   33.2340   -0.1950 N.3    13  LYS13      -0.1314
     43  N        -11.4440   41.6700  -10.9890 N.3    65  ASN65      -0.1240
     44  CA       -11.2270   40.6700   -9.9430 C.3    65  ASN65       0.1653
     45  C         -9.7320   40.6480   -9.6550 C.2    65  ASN65       0.2266
     46  O         -9.2960   40.5450   -8.4990 O.2    65  ASN65      -0.2867
     47  CB       -11.6490   39.2730  -10.4360 C.3    65  ASN65       0.1155
     48  CG       -11.6840   38.2240   -9.3120 C.2    65  ASN65       0.2627
     49  OD1      -12.7430   37.9560   -8.7410 O.2    65  ASN65      -0.2716
     50  ND2      -10.5230   37.6340   -8.9920 N.am   65  ASN65      -0.0877
     51  N         -4.0050   29.9450   -5.1170 N.3   144  GLU144     -0.1245
     52  CA        -5.3880   29.6310   -4.7950 C.3   144  GLU144      0.1567
     53  C         -6.0660   28.2680   -4.8140 C.2   144  GLU144      0.2260
     54  O         -7.1850   28.1680   -4.3040 O.2   144  GLU144     -0.2867
     55  CB        -6.3130   30.5870   -5.5420 C.3   144  GLU144      0.0388
     56  CG        -6.6500   31.8250   -4.7450 C.3   144  GLU144      0.1160
     57  CD        -7.8310   32.5710   -5.3170 C.2   144  GLU144      0.3649
     58  OE1       -8.2730   33.5420   -4.6750 O.co2 144  GLU144     -0.2457
     59  OE2       -8.3180   32.1870   -6.4030 O.co2 144  GLU144     -0.2457
     60  N        -12.4000   25.0550   -9.0200 N.3   166  ASP166     -0.1225
     61  CA       -12.7940   26.0870   -8.0770 C.3   166  ASP166      0.1805
     62  C        -13.8210   27.0490   -8.6530 C.2   166  ASP166      0.2598
     63  O        -13.4930   27.8680   -9.5080 O.2   166  ASP166     -0.2718
     64  CB       -11.5630   26.8800   -7.6570 C.3   166  ASP166      0.1424
     65  CG       -11.8910   28.0040   -6.6880 C.2   166  ASP166      0.3668
     66  OD1      -11.1870   29.0380   -6.7080 O.co2 166  ASP166     -0.2456
     67  OD2      -12.8420   27.8580   -5.8940 O.co2 166  ASP166     -0.2456
     68  N        -15.0660   26.9600   -8.1930 N.am  167  LEU167     -0.1966
     69  CA       -16.0890   27.8760   -8.6900 C.3   167  LEU167      0.1728
     70  C        -16.3140   28.9660   -7.6570 C.2   167  LEU167      0.2617
     71  O        -16.9770   28.7450   -6.6470 O.2   167  LEU167     -0.2715
     72  CB       -17.4090   27.1470   -8.9760 C.3   167  LEU167      0.0311
     73  CG       -18.5870   28.0370   -9.4180 C.3   167  LEU167      0.0022
     74  CD1      -18.1760   28.9000  -10.5950 C.3   167  LEU167      0.0001
     75  CD2      -19.7800   27.1680   -9.8000 C.3   167  LEU167      0.0001
     76  N        -15.7490   30.1410   -7.9170 N.am  168  GLY168     -0.1940
     77  CA       -15.8730   31.2510   -6.9940 C.3   168  GLY168      0.2014
     78  C        -16.9960   32.2000   -7.3530 C.2   168  GLY168      0.2639
     79  O        -17.8810   31.8570   -8.1450 O.2   168  GLY168     -0.2714
     80  N        -16.9530   33.3970   -6.7730 N.am  169  GLY169     -0.1939
     81  CA       -17.9800   34.3870   -7.0210 C.3   169  GLY169      0.2014
     82  C        -18.0090   34.9420   -8.4330 C.2   169  GLY169      0.2640
     83  O        -19.0830   35.1110   -9.0010 O.2   169  GLY169     -0.2714
     84  N        -16.8490   35.2230   -9.0160 N.am  170  THR170     -0.1936
     85  CA       -16.8240   35.7820  -10.3630 C.3   170  THR170      0.2028
     86  C        -15.8940   35.0710  -11.3460 C.2   170  THR170      0.2642
     87  O        -15.7320   35.5110  -12.4920 O.2   170  THR170     -0.2714
     88  CB       -16.4590   37.2740  -10.3100 C.3   170  THR170      0.1808
     89  OG1      -15.1100   37.4250   -9.8530 O.3   170  THR170     -0.2208
     90  CG2      -17.3750   37.9970   -9.3370 C.3   170  THR170      0.0379
     91  N        -15.3020   33.9620  -10.9110 N.am  171  THR171     -0.1950
     92  CA       -14.3990   33.2050  -11.7680 C.3   171  THR171      0.1897
     93  C        -14.5250   31.7060  -11.5160 C.2   171  THR171      0.2313
     94  O        -15.0590   31.2740  -10.4900 O.2   171  THR171     -0.2863
     95  CB       -12.9120   33.6070  -11.5240 C.3   171  THR171      0.1794
     96  OG1      -12.5280   33.2190  -10.2020 O.3   171  THR171     -0.2208
     97  CG2      -12.7130   35.1140  -11.6680 C.3   171  THR171      0.0378
     98  N        -20.3590   32.1830   -9.4840 N.3   195  VAL195     -0.1231
     99  CA       -21.6600   32.0380   -8.8430 C.3   195  VAL195      0.1692
    100  C        -22.5170   33.2970   -9.0260 C.2   195  VAL195      0.2592
    101  O        -23.7480   33.2180   -8.9780 O.2   195  VAL195     -0.2718
    102  CB       -21.5120   31.7330   -7.3300 C.3   195  VAL195      0.0266
    103  CG1      -22.8880   31.5570   -6.6910 C.3   195  VAL195      0.0020
    104  CG2      -20.6900   30.4730   -7.1390 C.3   195  VAL195      0.0020
    105  N        -21.8730   34.4450   -9.2520 N.am  196  SER196     -0.1952
    106  CA       -22.5950   35.7100   -9.4390 C.3   196  SER196      0.1924
    107  C        -23.6040   35.6090  -10.5920 C.2   196  SER196      0.2314
    108  O        -24.6150   36.3180  -10.6160 O.2   196  SER196     -0.2863
    109  CB       -21.6190   36.8600   -9.7070 C.3   196  SER196      0.2116
    110  OG       -20.9860   36.7180  -10.9720 O.3   196  SER196     -0.2180
    111  N        -26.4750   34.2860   -8.9530 N.3   199  THR199     -0.1218
    112  CA       -26.8990   35.3000   -7.9900 C.3   199  THR199      0.1862
    113  C        -27.7510   36.3860   -8.6390 C.2   199  THR199      0.2287
    114  O        -28.8250   36.7250   -8.1380 O.2   199  THR199     -0.2866
    115  CB       -25.6700   35.9520   -7.2950 C.3   199  THR199      0.1770
    116  OG1      -25.0120   34.9760   -6.4740 O.3   199  THR199     -0.2211
    117  CG2      -26.0910   37.1240   -6.4310 C.3   199  THR199      0.0375
    118  N        -25.3780   44.3070   -2.4760 N.3   212  LYS212     -0.1245
    119  CA       -24.9250   43.2450   -1.5750 C.3   212  LYS212      0.1561
    120  C        -25.9610   42.9510   -0.4920 C.2   212  LYS212      0.2260
    121  O        -25.9270   41.8940    0.1370 O.2   212  LYS212     -0.2867
    122  CB       -23.5810   43.6090   -0.9270 C.3   212  LYS212      0.0271
    123  CG       -23.1890   42.7400    0.2880 C.3   212  LYS212      0.0035
    124  CD       -23.0080   41.2540   -0.0450 C.3   212  LYS212      0.0206
    125  CE       -21.5810   40.9110   -0.4590 C.3   212  LYS212      0.1093
    126  NZ       -21.3510   39.4520   -0.7360 N.3   212  LYS212     -0.1314
    127  N        -28.7150   34.0660   -1.8770 N.3   219  ASP219     -0.1239
    128  CA       -28.0090   32.8750   -1.4210 C.3   219  ASP219      0.1674
    129  C        -28.9120   31.8120   -0.8150 C.2   219  ASP219      0.2266
    130  O        -28.8050   30.6340   -1.1680 O.2   219  ASP219     -0.2867
    131  CB       -26.9520   33.2510   -0.3970 C.3   219  ASP219      0.1410
    132  CG       -25.6020   33.4430   -1.0190 C.2   219  ASP219      0.3668
    133  OD1      -25.1290   32.4910   -1.6890 O.co2 219  ASP219     -0.2456
    134  OD2      -25.0210   34.5390   -0.8410 O.co2 219  ASP219     -0.2456
    135  N        -30.7960   30.0280   -3.5470 N.3   222  ILE222     -0.1231
    136  CA       -29.9420   29.1450   -4.3280 C.3   222  ILE222      0.1692
    137  C        -29.5980   27.8990   -3.5370 C.2   222  ILE222      0.2591
    138  O        -29.6430   26.7910   -4.0580 O.2   222  ILE222     -0.2718
    139  CB       -28.6570   29.8820   -4.7560 C.3   222  ILE222      0.0266
    140  CG1      -29.0540   31.0230   -5.7010 C.3   222  ILE222      0.0019
    141  CG2      -27.6560   28.9060   -5.3850 C.3   222  ILE222      0.0020
    142  CD1      -27.9280   31.8530   -6.2140 C.3   222  ILE222      0.0001
    143  N        -29.2760   28.0890   -2.2670 N.am  223  ILE223     -0.1980
    144  CA       -28.9230   26.9900   -1.3770 C.3   223  ILE223      0.1595
    145  C        -30.0800   26.0290   -1.1000 C.2   223  ILE223      0.2287
    146  O        -29.8900   24.8120   -1.0620 O.2   223  ILE223     -0.2864
    147  CB       -28.3960   27.5520   -0.0530 C.3   223  ILE223      0.0276
    148  CG1      -26.9530   28.0110   -0.2480 C.3   223  ILE223      0.0022
    149  CG2      -28.5290   26.5290    1.0550 C.3   223  ILE223      0.0022
    150  CD1      -26.5110   29.0340    0.7540 C.3   223  ILE223      0.0001
    151  N        -14.6810   25.8810   -3.5730 N.3   276  GLY276     -0.1210
    152  CA       -15.2350   27.1950   -3.8070 C.3   276  GLY276      0.1956
    153  C        -16.7000   27.2130   -3.4340 C.2   276  GLY276      0.2612
    154  O        -17.3250   26.1620   -3.3020 O.2   276  GLY276     -0.2717
    155  N        -17.2450   28.4140   -3.2740 N.am  277  GLY277     -0.1956
    156  CA       -18.6390   28.5660   -2.9110 C.3   277  GLY277      0.1869
    157  C        -19.6000   27.8750   -3.8530 C.2   277  GLY277      0.2309
    158  O        -20.6490   27.3870   -3.4270 O.2   277  GLY277     -0.2863
    159  N        -20.9480   23.1200   -4.8310 N.3   280  GLU280     -0.1231
    160  CA       -22.2210   22.4400   -4.7060 C.3   280  GLU280      0.1699
    161  C        -23.0720   22.5520   -5.9600 C.2   280  GLU280      0.2592
    162  O        -23.8470   21.6550   -6.2790 O.2   280  GLU280     -0.2718
    163  CB       -22.9560   23.0180   -3.4970 C.3   280  GLU280      0.0402
    164  CG       -24.3900   22.5930   -3.3570 C.3   280  GLU280      0.1161
    165  CD       -25.3610   23.7210   -3.6920 C.2   280  GLU280      0.3649
    166  OE1      -25.1750   24.8540   -3.1780 O.co2 280  GLU280     -0.2457
    167  OE2      -26.3170   23.4700   -4.4610 O.co2 280  GLU280     -0.2457
    168  N        -22.9050   23.6480   -6.6850 N.am  281  LEU281     -0.1980
    169  CA       -23.6830   23.8910   -7.8890 C.3   281  LEU281      0.1596
    170  C        -23.2900   23.0580   -9.1070 C.2   281  LEU281      0.2287
    171  O        -24.1340   22.7420   -9.9370 O.2   281  LEU281     -0.2864
    172  CB       -23.6080   25.3750   -8.2510 C.3   281  LEU281      0.0297
    173  CG       -23.8450   26.3530   -7.0990 C.3   281  LEU281      0.0022
    174  CD1      -23.6570   27.7640   -7.5830 C.3   281  LEU281      0.0001
    175  CD2      -25.2430   26.1720   -6.5490 C.3   281  LEU281      0.0001
    176  N        -18.9630   19.9000    2.3520 N.3   301  ASN301     -0.1240
    177  CA       -20.2030   20.6450    2.5310 C.3   301  ASN301      0.1653
    178  C        -19.8470   21.9970    3.1250 C.2   301  ASN301      0.2266
    179  O        -20.7020   22.7060    3.6630 O.2   301  ASN301     -0.2867
    180  CB       -21.1300   19.8830    3.4760 C.3   301  ASN301      0.1155
    181  CG       -20.5820   18.5050    3.8390 C.2   301  ASN301      0.2627
    182  OD1      -19.5560   18.3870    4.5310 O.2   301  ASN301     -0.2716
    183  ND2      -21.2510   17.4560    3.3620 N.am  301  ASN301     -0.0877
    184  N        -17.4040   23.8960    1.2230 N.3   303  SER303     -0.1202
    185  CA       -16.5760   24.2990    0.0960 C.3   303  SER303      0.2020
    186  C        -15.9960   25.7170    0.0900 C.2   303  SER303      0.2618
    187  O        -14.8620   25.9000   -0.3410 O.2   303  SER303     -0.2717
    188  CB       -17.3280   24.0230   -1.2100 C.3   303  SER303      0.2103
    189  OG       -17.4310   22.6230   -1.4290 O.3   303  SER303     -0.2182
    190  N        -16.7190   26.7200    0.5710 N.am  304  GLN304     -0.1979
    191  CA       -16.1420   28.0550    0.5270 C.3   304  GLN304      0.1601
    192  C        -14.9520   28.2020    1.4560 C.2   304  GLN304      0.2287
    193  O        -14.1850   29.1680    1.3410 O.2   304  GLN304     -0.2864
    194  CB       -17.1770   29.1310    0.8410 C.3   304  GLN304      0.0394
    195  CG       -17.7310   29.0730    2.2330 C.3   304  GLN304      0.0908
    196  CD       -18.8400   30.0800    2.4400 C.2   304  GLN304      0.2608
    197  OE1      -19.5920   29.9880    3.4030 O.2   304  GLN304     -0.2717
    198  NE2      -18.9450   31.0500    1.5380 N.am  304  GLN304     -0.0878
@<TRIPOS>BOND
     1    87    86    2
     2    92    95    1
     3    92    93    1
     4    92    91    1
     5    97    95    1
     6    95    96    1
     7    93    94    2
     8    86    91   am
     9    86    85    1
    10    43    44    1
    11   110   109    1
    12   108   107    2
    13    74    73    1
    14   107   106    1
    15    47    44    1
    16    47    48    1
    17    85    88    1
    18    85    84    1
    19    88    89    1
    20    88    90    1
    21    44    45    1
    22   171   170    2
    23    75    73    1
    24   109   106    1
    25    45    46    2
    26    63    62    2
    27    98    99    1
    28   106   105    1
    29    73    72    1
    30    48    50   am
    31    48    49    2
    32   105   100   am
    33   170   169    1
    34   100   101    2
    35   100    99    1
    36    60    61    1
    37    84    82   am
    38    83    82    2
    39    72    69    1
    40   111   112    1
    41    99   102    1
    42    69    68    1
    43    69    70    1
    44    62    68   am
    45    62    61    1
    46   113   114    2
    47   113   112    1
    48    82    81    1
    49   172   169    1
    50   172   173    1
    51    79    78    2
    52    61    64    1
    53   112   115    1
    54    76    70   am
    55    76    77    1
    56   169   168    1
    57    70    71    2
    58    64    65    1
    59   174   173    1
    60    78    77    1
    61    78    80   am
    62   102   104    1
    63   102   103    1
    64   115   116    1
    65   115   117    1
    66   173   175    1
    67    81    80    1
    68    66    65   ar
    69    65    67   ar
    70   168   161   am
    71    18    17    1
    72    59    57   ar
    73   162   161    2
    74   142   140    1
    75   161   160    1
    76   140   139    1
    77    17    14    1
    78    55    52    1
    79    55    56    1
    80   141   139    1
    81    57    56    1
    82    57    58   ar
    83    24    23    1
    84    51    52    1
    85   159   160    1
    86    53    52    1
    87    53    54    2
    88   139   136    1
    89   160   163    1
    90   167   165   ar
    91   136   135    1
    92   136   137    1
    93    14    13    1
    94    14    15    1
    95    16    15    2
    96   138   137    2
    97    13    11   am
    98    15    19   am
    99   157   158    2
   100   157   156    1
   101   152   151    1
   102   152   153    1
   103    23    25    1
   104    23    20    1
   105   165   164    1
   106   165   166   ar
   107   137   143   am
   108   163   164    1
   109    19    20    1
   110   153   154    2
   111   153   155   am
   112   155   156    1
   113    20    21    1
   114    11    10    1
   115    11    12    2
   116    10     9    1
   117   118   119    1
   118   143   144    1
   119   127   128    1
   120   133   132   ar
   121   119   122    1
   122   119   120    1
   123    21    26   am
   124    21    22    2
   125   189   188    1
   126   128   129    1
   127   128   131    1
   128   144   145    1
   129   144   147    1
   130   188   185    1
   131   130   129    2
   132   145   146    2
   133   132   134   ar
   134   132   131    1
   135    26    27    1
   136   122   123    1
   137     7     6   ar
   138   126   125    1
   139   120   121    2
   140   125   124    1
   141   187   186    2
   142   148   147    1
   143   148   150    1
   144    42    41    1
   145     8     6   ar
   146   147   149    1
   147   124   123    1
   148     6     5    1
   149   186   185    1
   150   186   190   am
   151   185   184    1
   152    29    28    2
   153    33    31   am
   154    27    28    1
   155    27    30    1
   156   191   190    1
   157   191   194    1
   158   191   192    1
   159   194   195    1
   160    30    31    1
   161    31    32    2
   162    41    40    1
   163     3     4    2
   164     3     2    1
   165   193   192    2
   166     5     2    1
   167   198   196   am
   168     2     1    1
   169    40    39    1
   170   195   196    1
   171   176   177    1
   172   196   197    2
   173   177   178    1
   174   177   180    1
   175   178   179    2
   176   183   181   am
   177    39    38    1
   178   180   181    1
   179    34    35    1
   180   181   182    2
   181    38    35    1
   182    35    36    1
   183    37    36    2
