@<TRIPOS>MOLECULE
tmp/1mwwC00.pdb
 92 91 0 0 0
SMALL
GASTEIGER

@<TRIPOS>ATOM
      1  N         21.9480   55.0220    6.5390 N.3     1  MET1       -0.1245
      2  CA        20.8020   55.0110    7.4550 C.3     1  MET1        0.1570
      3  C         20.6530   56.2560    8.3620 C.2     1  MET1        0.2261
      4  O         21.6230   56.7740    8.8650 O.2     1  MET1       -0.2867
      5  CB        20.8650   53.7560    8.3110 C.3     1  MET1        0.0387
      6  CG        19.8770   53.7090    9.4000 C.3     1  MET1        0.0595
      7  SD        19.9990   52.1950   10.4430 S.3     1  MET1       -0.1393
      8  CE        21.3840   52.8270   11.6130 C.3     1  MET1        0.0692
      9  N         13.4670   55.0360    0.0370 N.3    36  LYS36      -0.1231
     10  CA        14.7800   54.7380   -0.5260 C.3    36  LYS36       0.1693
     11  C         15.7950   54.5080    0.5600 C.2    36  LYS36       0.2592
     12  O         16.7800   53.7920    0.3360 O.2    36  LYS36      -0.2718
     13  CB        15.3060   55.9100   -1.3530 C.3    36  LYS36       0.0285
     14  CG        15.9980   55.5380   -2.6740 C.3    36  LYS36       0.0035
     15  CD        14.9600   55.1150   -3.7370 C.3    36  LYS36       0.0206
     16  CE        15.6290   54.5360   -4.9820 C.3    36  LYS36       0.1093
     17  NZ        16.7460   55.4100   -5.4930 N.3    36  LYS36      -0.1314
     18  N         15.5480   55.1190    1.7230 N.am   37  HIS37      -0.1962
     19  CA        16.4610   55.1090    2.8740 C.3    37  HIS37       0.1787
     20  C         15.9710   54.3630    4.0590 C.2    37  HIS37       0.2620
     21  O         14.7520   54.2450    4.2570 O.2    37  HIS37      -0.2715
     22  CB        16.7030   56.5240    3.3910 C.3    37  HIS37       0.0785
     23  CG        17.8720   57.2000    2.7920 C.ar   37  HIS37       0.0821
     24  ND1       18.9210   57.6510    3.5470 N.ar   37  HIS37      -0.2267
     25  CD2       18.1680   57.5040    1.5070 C.ar   37  HIS37       0.1154
     26  CE1       19.8210   58.2020    2.7560 C.ar   37  HIS37       0.1986
     27  NE2       19.3890   58.1240    1.5120 N.ar   37  HIS37      -0.2212
     28  N         16.9200   53.8750    4.8710 N.am   38  ALA38      -0.1977
     29  CA        16.5000   53.2200    6.0640 C.3    38  ALA38       0.1597
     30  C         16.3470   54.2670    7.1800 C.2    38  ALA38       0.2287
     31  O         17.1730   55.1980    7.3070 O.2    38  ALA38      -0.2864
     32  CB        17.5410   52.1470    6.5010 C.3    38  ALA38       0.0319
     33  N         22.9140   60.1580    7.5050 N.3    65  ASN65      -0.1225
     34  CA        24.1530   59.8380    6.7980 C.3    65  ASN65       0.1785
     35  C         23.9310   59.9330    5.2880 C.2    65  ASN65       0.2597
     36  O         22.9920   59.3380    4.7700 O.2    65  ASN65      -0.2718
     37  CB        24.6120   58.4230    7.1690 C.3    65  ASN65       0.1169
     38  CG        25.1210   58.3440    8.5830 C.2    65  ASN65       0.2627
     39  OD1       26.2360   58.8030    8.8800 O.2    65  ASN65      -0.2716
     40  ND2       24.2870   57.8290    9.4840 N.am   65  ASN65      -0.0877
     41  N         24.7760   60.7050    4.6070 N.am   66  LEU66      -0.1966
     42  CA        24.7170   60.8260    3.1560 C.3    66  LEU66       0.1728
     43  C         26.0590   60.5830    2.4750 C.2    66  LEU66       0.2616
     44  O         27.1270   60.7200    3.0820 O.2    66  LEU66      -0.2715
     45  CB        24.2740   62.2280    2.7170 C.3    66  LEU66       0.0311
     46  CG        23.1000   62.8470    3.5050 C.3    66  LEU66       0.0022
     47  CD1       22.9820   64.3130    3.2260 C.3    66  LEU66       0.0001
     48  CD2       21.8460   62.1250    3.1080 C.3    66  LEU66       0.0001
     49  N         25.9770   60.1620    1.2180 N.am   67  MET67      -0.1977
     50  CA        27.1680   60.0760    0.4180 C.3    67  MET67       0.1605
     51  C         27.5320   61.5280    0.1470 C.2    67  MET67       0.2287
     52  O         26.6380   62.3440   -0.1810 O.2    67  MET67      -0.2864
     53  CB        26.8970   59.3510   -0.9050 C.3    67  MET67       0.0413
     54  CG        26.9150   57.8330   -0.7550 C.3    67  MET67       0.0598
     55  SD        27.1000   57.0040   -2.3540 S.3    67  MET67      -0.1393
     56  CE        27.6500   58.2490   -3.3220 C.3    67  MET67       0.0692
     57  N         30.8500   54.0100    0.8340 N.3   109  TRP109     -0.1241
     58  CA        29.5070   53.4300    0.8870 C.3   109  TRP109      0.1605
     59  C         29.3800   52.1160    0.1330 C.2   109  TRP109      0.2264
     60  O         29.9810   51.9120   -0.9170 O.2   109  TRP109     -0.2867
     61  CB        28.4380   54.3950    0.3360 C.3   109  TRP109      0.0550
     62  CG        28.0070   55.4430    1.3400 C.ar  109  TRP109      0.0003
     63  CD1       28.6470   56.5730    1.6230 C.ar  109  TRP109      0.0946
     64  CD2       26.8200   55.4140    2.1640 C.ar  109  TRP109      0.0152
     65  NE1       27.9520   57.2910    2.5710 N.ar  109  TRP109     -0.2442
     66  CE2       26.8230   56.6040    2.9280 C.ar  109  TRP109      0.0810
     67  CE3       25.7650   54.5090    2.3180 C.ar  109  TRP109      0.0012
     68  CZ2       25.7880   56.9270    3.8560 C.ar  109  TRP109      0.0191
     69  CZ3       24.7320   54.8210    3.2260 C.ar  109  TRP109      0.0001
     70  CH2       24.7550   56.0340    3.9860 C.ar  109  TRP109      0.0015
     71  N         26.2610   49.4690   -1.1270 N.3   111  PHE111     -0.1227
     72  CA        24.8630   49.0470   -1.1390 C.3   111  PHE111      0.1736
     73  C         24.5740   48.2510   -2.4100 C.2   111  PHE111      0.2595
     74  O         25.1670   48.5070   -3.4410 O.2   111  PHE111     -0.2718
     75  CB        23.9190   50.2530   -1.0230 C.3   111  PHE111      0.0547
     76  CG        24.3120   51.4100   -1.9020 C.ar  111  PHE111     -0.0202
     77  CD1       23.9910   51.4170   -3.2530 C.ar  111  PHE111     -0.0042
     78  CD2       25.0020   52.4940   -1.3750 C.ar  111  PHE111     -0.0042
     79  CE1       24.3420   52.4870   -4.0820 C.ar  111  PHE111     -0.0003
     80  CE2       25.3610   53.5780   -2.2240 C.ar  111  PHE111     -0.0003
     81  CZ        25.0270   53.5590   -3.5620 C.ar  111  PHE111     -0.0000
     82  N         23.6650   47.3000   -2.3460 N.am  112  ARG112     -0.1980
     83  CA        23.3430   46.5120   -3.5490 C.3   112  ARG112      0.1597
     84  C         24.5440   45.9000   -4.2480 C.2   112  ARG112      0.2287
     85  O         24.6500   45.9130   -5.4870 O.2   112  ARG112     -0.2864
     86  CB        22.5070   47.3690   -4.5310 C.3   112  ARG112      0.0334
     87  CG        21.1560   47.6730   -3.8710 C.3   112  ARG112      0.0492
     88  CD        20.1760   48.4430   -4.7260 C.3   112  ARG112      0.2205
     89  NE        20.6100   49.7900   -5.0530 N.pl3 112  ARG112     -0.0865
     90  CZ        20.9610   50.1560   -6.2760 C.cat 112  ARG112      0.5346
     91  NH1       21.3370   51.3940   -6.5180 N.pl3 112  ARG112      0.1354
     92  NH2       20.9390   49.2620   -7.2750 N.pl3 112  ARG112      0.1354
@<TRIPOS>BOND
     1    92    90    1
     2    91    90    1
     3    90    89    2
     4    17    16    1
     5    85    84    2
     6    89    88    1
     7    16    15    1
     8    88    87    1
     9    86    87    1
    10    86    83    1
    11    84    83    1
    12    79    81   ar
    13    79    77   ar
    14    15    14    1
    15    81    80   ar
    16    83    82    1
    17    74    73    2
    18    56    55    1
    19    77    76   ar
    20    14    13    1
    21    73    82   am
    22    73    72    1
    23    55    54    1
    24    80    78   ar
    25    76    78   ar
    26    76    75    1
    27    13    10    1
    28    72    71    1
    29    72    75    1
    30    60    59    2
    31    53    54    1
    32    53    50    1
    33    10     9    1
    34    10    11    1
    35    52    51    2
    36    59    58    1
    37    51    50    1
    38    61    58    1
    39    61    62    1
    40    12    11    2
    41    50    49    1
    42    11    18   am
    43    57    58    1
    44    49    43   am
    45    62    63   ar
    46    62    64   ar
    47    25    27   ar
    48    25    23   ar
    49    27    26   ar
    50    63    65   ar
    51    18    19    1
    52    64    67   ar
    53    64    66   ar
    54    67    69   ar
    55    43    44    2
    56    43    42    1
    57    65    66   ar
    58    45    42    1
    59    45    46    1
    60    26    24   ar
    61    23    22    1
    62    23    24   ar
    63    19    22    1
    64    19    20    1
    65    66    68   ar
    66    48    46    1
    67    42    41    1
    68    69    70   ar
    69    47    46    1
    70    68    70   ar
    71    20    21    2
    72    20    28   am
    73    41    35   am
    74    36    35    2
    75    28    29    1
    76    35    34    1
    77    29    32    1
    78    29    30    1
    79     1     2    1
    80    34    37    1
    81    34    33    1
    82    37    38    1
    83    30    31    2
    84     2     5    1
    85     2     3    1
    86     5     6    1
    87     3     4    2
    88    38    39    2
    89    38    40   am
    90     6     7    1
    91     7     8    1
