@<TRIPOS>MOLECULE
tmp/1mx0B00.pdb
 176 167 0 0 0
SMALL
GASTEIGER

@<TRIPOS>ATOM
      1  N         47.9960    3.7000   27.4520 N.3    35  GLU35      -0.1245
      2  CA        48.7010    3.9960   26.2000 C.3    35  GLU35       0.1567
      3  C         49.1260    2.7450   25.4580 C.2    35  GLU35       0.2260
      4  O         49.0500    2.6910   24.2160 O.2    35  GLU35      -0.2867
      5  CB        49.9400    4.8870   26.4490 C.3    35  GLU35       0.0388
      6  CG        49.6100    6.2560   27.0840 C.3    35  GLU35       0.1160
      7  CD        48.8130    7.2020   26.1770 C.2    35  GLU35       0.3649
      8  OE1       48.4750    6.8190   25.0170 O.co2  35  GLU35      -0.2457
      9  OE2       48.5240    8.3560   26.6220 O.co2  35  GLU35      -0.2457
     10  N         47.7360    1.1600   22.0630 N.3    39  ASN39      -0.1225
     11  CA        48.6810    0.9050   20.9740 C.3    39  ASN39       0.1785
     12  C         48.5460   -0.5310   20.4200 C.2    39  ASN39       0.2597
     13  O         48.5710   -0.7380   19.2280 O.2    39  ASN39      -0.2718
     14  CB        50.1380    1.1740   21.4100 C.3    39  ASN39       0.1169
     15  CG        50.4720    2.6610   21.4290 C.2    39  ASN39       0.2627
     16  OD1       49.7370    3.4670   20.8810 O.2    39  ASN39      -0.2716
     17  ND2       51.5710    3.0210   22.0700 N.am   39  ASN39      -0.0877
     18  N         48.3940   -1.5260   21.2800 N.am   40  SER40      -0.1952
     19  CA        48.2200   -2.8910   20.7820 C.3    40  SER40       0.1924
     20  C         46.8510   -3.0420   20.0570 C.2    40  SER40       0.2314
     21  O         46.7210   -3.7410   19.0400 O.2    40  SER40      -0.2863
     22  CB        48.3080   -3.8570   21.9480 C.3    40  SER40       0.2116
     23  OG        49.5210   -3.6560   22.6770 O.3    40  SER40      -0.2180
     24  N         47.2130   -1.7210   16.6330 N.3    43  ALA43      -0.1245
     25  CA        48.1070   -2.5270   15.8080 C.3    43  ALA43       0.1562
     26  C         47.4290   -3.8150   15.3680 C.2    43  ALA43       0.2260
     27  O         47.9250   -4.5120   14.5140 O.2    43  ALA43      -0.2867
     28  CB        49.3810   -2.8440   16.5670 C.3    43  ALA43       0.0290
     29  N         51.0790   -8.0510   22.3180 N.3    73  ASP73      -0.1239
     30  CA        49.9830   -8.2030   21.3990 C.3    73  ASP73       0.1674
     31  C         50.3770   -9.0590   20.2040 C.2    73  ASP73       0.2266
     32  O         51.5550   -9.3690   20.0130 O.2    73  ASP73      -0.2867
     33  CB        49.5380   -6.8280   20.9000 C.3    73  ASP73       0.1410
     34  CG        50.5690   -6.1640   20.0180 C.2    73  ASP73       0.3668
     35  OD1       50.9480   -4.9980   20.3100 O.co2  73  ASP73      -0.2456
     36  OD2       51.0360   -6.6980   18.9920 O.co2  73  ASP73      -0.2456
     37  N         50.5640   -6.1170   14.0560 N.3    76  ILE76      -0.1231
     38  CA        51.4220   -6.0930   12.8760 C.3    76  ILE76       0.1692
     39  C         52.9010   -5.8460   13.1500 C.2    76  ILE76       0.2593
     40  O         53.7080   -5.9430   12.2370 O.2    76  ILE76      -0.2718
     41  CB        50.9230   -5.0340   11.8840 C.3    76  ILE76       0.0266
     42  CG1       50.8330   -3.6830   12.5750 C.3    76  ILE76       0.0019
     43  CG2       49.5780   -5.4100   11.3090 C.3    76  ILE76       0.0020
     44  CD1       50.6380   -2.5580   11.6260 C.3    76  ILE76       0.0001
     45  N         53.2660   -5.5070   14.3830 N.am   77  GLY77      -0.1942
     46  CA        54.6430   -5.1710   14.6700 C.3    77  GLY77       0.2014
     47  C         55.0590   -3.8430   14.0360 C.2    77  GLY77       0.2638
     48  O         54.2440   -3.1370   13.4550 O.2    77  GLY77      -0.2714
     49  N         56.3330   -3.5020   14.1800 N.am   78  ILE78      -0.1977
     50  CA        56.8880   -2.2580   13.6620 C.3    78  ILE78       0.1596
     51  C         58.1450   -2.5760   12.8960 C.2    78  ILE78       0.2287
     52  O         59.0160   -3.2650   13.4010 O.2    78  ILE78      -0.2864
     53  CB        57.2580   -1.2970   14.8180 C.3    78  ILE78       0.0276
     54  CG1       56.0440   -1.0010   15.7140 C.3    78  ILE78       0.0022
     55  CG2       57.8310    0.0040   14.2810 C.3    78  ILE78       0.0022
     56  CD1       55.9880   -1.8550   16.9220 C.3    78  ILE78       0.0001
     57  N         59.5760    5.6060   16.5240 N.3    86  ALA86      -0.1231
     58  CA        58.2210    5.3970   17.0590 C.3    86  ALA86       0.1694
     59  C         58.1570    5.5050   18.5490 C.2    86  ALA86       0.2592
     60  O         57.1660    6.0070   19.0670 O.2    86  ALA86      -0.2718
     61  CB        57.6470    4.0430   16.6200 C.3    86  ALA86       0.0304
     62  N         59.1910    5.0140   19.2420 N.am   87  PHE87      -0.1976
     63  CA        59.1770    4.9660   20.7000 C.3    87  PHE87       0.1639
     64  C         60.0720    6.0170   21.3250 C.2    87  PHE87       0.2290
     65  O         60.0230    6.2470   22.5370 O.2    87  PHE87      -0.2864
     66  CB        59.5960    3.5720   21.2050 C.3    87  PHE87       0.0560
     67  CG        58.5890    2.4730   20.8750 C.ar   87  PHE87      -0.0200
     68  CD1       57.5620    2.1760   21.7460 C.ar   87  PHE87      -0.0042
     69  CD2       58.6930    1.7560   19.7020 C.ar   87  PHE87      -0.0042
     70  CE1       56.6400    1.1760   21.4610 C.ar   87  PHE87      -0.0003
     71  CE2       57.7770    0.7600   19.4030 C.ar   87  PHE87      -0.0003
     72  CZ        56.7370    0.4800   20.2980 C.ar   87  PHE87      -0.0000
     73  N         56.0290   11.7710   16.5450 N.3    92  TYR92      -0.1227
     74  CA        56.3030   10.8780   15.4300 C.3    92  TYR92       0.1736
     75  C         55.2220    9.7860   15.4730 C.2    92  TYR92       0.2596
     76  O         55.0020    9.1760   16.4980 O.2    92  TYR92      -0.2718
     77  CB        57.6880   10.2550   15.5900 C.3    92  TYR92       0.0548
     78  CG        58.1910    9.5490   14.3360 C.ar   92  TYR92      -0.0200
     79  CD1       58.7700   10.2690   13.3040 C.ar   92  TYR92      -0.0009
     80  CD2       58.0730    8.1670   14.1980 C.ar   92  TYR92      -0.0009
     81  CE1       59.2280    9.6270   12.1390 C.ar   92  TYR92       0.0417
     82  CE2       58.5400    7.5030   13.0520 C.ar   92  TYR92       0.0417
     83  CZ        59.1190    8.2370   12.0240 C.ar   92  TYR92       0.1957
     84  OH        59.5820    7.5890   10.8820 O.3    92  TYR92      -0.2866
     85  N         54.5480    9.5330   14.3630 N.am   93  SER93      -0.1938
     86  CA        53.3620    8.7140   14.4340 C.3    93  SER93       0.2055
     87  C         52.9850    8.1410   13.0700 C.2    93  SER93       0.2644
     88  O         53.3240    8.7250   12.0560 O.2    93  SER93      -0.2714
     89  CB        52.2220    9.6000   14.9630 C.3    93  SER93       0.2130
     90  OG        50.9810    8.9170   14.9860 O.3    93  SER93      -0.2179
     91  N         52.3240    6.9830   13.0540 N.am   94  SER94      -0.1935
     92  CA        51.7290    6.4470   11.8170 C.3    94  SER94       0.2055
     93  C         50.2600    6.7740   11.8270 C.2    94  SER94       0.2642
     94  O         49.5300    6.3340   10.9610 O.2    94  SER94      -0.2714
     95  CB        51.8610    4.9250   11.7220 C.3    94  SER94       0.2130
     96  OG        51.1220    4.2620   12.7750 O.3    94  SER94      -0.2179
     97  N         49.8140    7.5550   12.8230 N.am   95  LYS95      -0.1977
     98  CA        48.3920    7.8840   12.9150 C.3    95  LYS95       0.1596
     99  C         48.0870    9.3410   12.6760 C.2    95  LYS95       0.2287
    100  O         47.0700    9.8560   13.1470 O.2    95  LYS95      -0.2864
    101  CB        47.7990    7.4280   14.2620 C.3    95  LYS95       0.0298
    102  CG        48.2300    6.0320   14.5980 C.3    95  LYS95       0.0038
    103  CD        47.9660    5.6200   16.0620 C.3    95  LYS95       0.0206
    104  CE        48.5740    4.2190   16.2720 C.3    95  LYS95       0.1093
    105  NZ        48.4480    3.7540   17.6830 N.3    95  LYS95      -0.1314
    106  N         44.9250    6.1440   18.9220 N.3   103  GLY103     -0.1225
    107  CA        45.9950    7.1320   19.0260 C.3   103  GLY103      0.1811
    108  C         45.8630    8.2300   18.0020 C.2   103  GLY103      0.2280
    109  O         45.2240    8.0380   16.9580 O.2   103  GLY103     -0.2866
    110  N         48.1880   11.6410   18.5760 N.3   104  TYR104     -0.1227
    111  CA        49.1840   12.7150   18.7950 C.3   104  TYR104      0.1736
    112  C         50.6310   12.3930   18.4470 C.2   104  TYR104      0.2596
    113  O         51.4490   13.3220   18.2480 O.2   104  TYR104     -0.2718
    114  CB        49.1850   13.1460   20.2720 C.3   104  TYR104      0.0548
    115  CG        47.8860   13.7290   20.7600 C.ar  104  TYR104     -0.0200
    116  CD1       47.2060   14.7160   20.0260 C.ar  104  TYR104     -0.0009
    117  CD2       47.3300   13.3010   21.9430 C.ar  104  TYR104     -0.0009
    118  CE1       45.9750   15.2600   20.4960 C.ar  104  TYR104      0.0417
    119  CE2       46.1310   13.8020   22.4000 C.ar  104  TYR104      0.0417
    120  CZ        45.4640   14.7830   21.6810 C.ar  104  TYR104      0.1957
    121  OH        44.2790   15.2460   22.1820 O.3   104  TYR104     -0.2866
    122  N         50.9740   11.1060   18.4050 N.am  105  GLY105     -0.1942
    123  CA        52.3630   10.6970   18.2680 C.3   105  GLY105      0.2014
    124  C         53.1580   10.9990   19.5400 C.2   105  GLY105      0.2639
    125  O         54.3390   11.3720   19.4900 O.2   105  GLY105     -0.2714
    126  N         52.5370   10.7930   20.6890 N.am  106  LEU106     -0.1963
    127  CA        53.1550   11.2140   21.9360 C.3   106  LEU106      0.1728
    128  C         53.1050   10.1550   23.0580 C.2   106  LEU106      0.2617
    129  O         54.1060    9.9150   23.7340 O.2   106  LEU106     -0.2715
    130  CB        52.4560   12.4960   22.4280 C.3   106  LEU106      0.0311
    131  CG        52.7050   12.9130   23.8830 C.3   106  LEU106      0.0022
    132  CD1       54.0360   13.7050   23.9880 C.3   106  LEU106      0.0001
    133  CD2       51.6070   13.7670   24.3530 C.3   106  LEU106      0.0001
    134  N         51.9500    9.5180   23.2310 N.am  107  GLY107     -0.1940
    135  CA        51.6650    8.6930   24.3980 C.3   107  GLY107      0.2014
    136  C         52.7830    7.8370   24.9770 C.2   107  GLY107      0.2639
    137  O         53.0970    7.9430   26.1540 O.2   107  GLY107     -0.2714
    138  N         53.3800    6.9850   24.1550 N.am  108  VAL108     -0.1963
    139  CA        54.3780    6.1270   24.6890 C.3   108  VAL108      0.1727
    140  C         55.6360    6.9130   25.0130 C.2   108  VAL108      0.2616
    141  O         56.3140    6.6140   26.0230 O.2   108  VAL108     -0.2715
    142  CB        54.6260    4.8510   23.8150 C.3   108  VAL108      0.0290
    143  CG1       55.5060    5.1580   22.6160 C.3   108  VAL108      0.0023
    144  CG2       55.2350    3.7190   24.7100 C.3   108  VAL108      0.0023
    145  N         55.9180    7.9550   24.2250 N.am  109  LYS109     -0.1977
    146  CA        57.0890    8.7940   24.5080 C.3   109  LYS109      0.1596
    147  C         56.9040    9.4980   25.8250 C.2   109  LYS109      0.2287
    148  O         57.8620    9.6540   26.5970 O.2   109  LYS109     -0.2864
    149  CB        57.3600    9.8240   23.4050 C.3   109  LYS109      0.0298
    150  CG        58.2860    9.3290   22.2980 C.3   109  LYS109      0.0038
    151  CD        57.5700    8.3800   21.3380 C.3   109  LYS109      0.0206
    152  CE        56.7330    9.1380   20.3550 C.3   109  LYS109      0.1093
    153  NZ        55.6810    8.2710   19.6960 N.3   109  LYS109     -0.1314
    154  N         54.0730   -7.4150   19.0810 N.3   165  THR165     -0.1218
    155  CA        54.9770   -6.5160   19.7560 C.3   165  THR165      0.1862
    156  C         54.8810   -6.6930   21.2640 C.2   165  THR165      0.2287
    157  O         53.8040   -6.9320   21.8200 O.2   165  THR165     -0.2866
    158  CB        54.6670   -5.0390   19.3440 C.3   165  THR165      0.1770
    159  OG1       54.7580   -4.9070   17.9080 O.3   165  THR165     -0.2211
    160  CG2       55.7530   -4.0970   19.8390 C.3   165  THR165      0.0375
    161  N         56.1290   -4.5620   24.7110 N.3   167  VAL167     -0.1245
    162  CA        56.6570   -3.2910   25.1720 C.3   167  VAL167      0.1561
    163  C         56.6850   -3.3280   26.6870 C.2   167  VAL167      0.2260
    164  O         55.6790   -3.7220   27.3250 O.2   167  VAL167     -0.2867
    165  CB        55.7680   -2.0980   24.7370 C.3   167  VAL167      0.0252
    166  CG1       56.3290   -0.8040   25.3360 C.3   167  VAL167      0.0019
    167  CG2       55.6770   -1.9840   23.2130 C.3   167  VAL167      0.0019
    168  N         44.1250   12.6110   27.1270 N.3   420  LYS420     -0.1245
    169  CA        42.8990   12.0300   26.5570 C.3   420  LYS420      0.1561
    170  C         41.8200   11.5930   27.5220 C.2   420  LYS420      0.2260
    171  O         41.2570   10.4940   27.3540 O.2   420  LYS420     -0.2867
    172  CB        43.2180   10.8500   25.6380 C.3   420  LYS420      0.0271
    173  CG        44.0590   11.2430   24.4520 C.3   420  LYS420      0.0035
    174  CD        44.3720   10.0650   23.5450 C.3   420  LYS420      0.0206
    175  CE        45.8430   10.0910   23.2280 C.3   420  LYS420      0.1093
    176  NZ        46.2520    8.9590   22.4000 N.3   420  LYS420     -0.1314
@<TRIPOS>BOND
     1    84    83    1
     2    94    93    2
     3    43    41    1
     4    44    42    1
     5    95    92    1
     6    95    96    1
     7    92    93    1
     8    92    91    1
     9    93    97   am
    10    41    42    1
    11    41    38    1
    12    83    81   ar
    13    83    82   ar
    14    88    87    2
    15    81    79   ar
    16    40    39    2
    17    99    98    1
    18    99   100    2
    19    97    98    1
    20    38    39    1
    21    38    37    1
    22    51    52    2
    23    51    50    1
    24    98   101    1
    25    82    80   ar
    26    91    87   am
    27    87    86    1
    28    39    45   am
    29    79    78   ar
    30    48    47    2
    31    50    49    1
    32    50    53    1
    33    47    49   am
    34    47    46    1
    35    80    78   ar
    36   101   102    1
    37    55    53    1
    38    78    77    1
    39    85    86    1
    40    85    75   am
    41    45    46    1
    42    86    89    1
    43    27    26    2
    44   102   103    1
    45    53    54    1
    46    89    90    1
    47    26    25    1
    48    74    75    1
    49    74    77    1
    50    74    73    1
    51    75    76    2
    52    54    56    1
    53    25    28    1
    54    25    24    1
    55   103   104    1
    56   104   105    1
    57    57    58    1
    58    61    58    1
    59   109   108    2
    60    58    59    1
    61   159   158    1
    62   108   107    1
    63   113   112    2
    64   123   122    1
    65   123   124    1
    66   122   112   am
    67   112   111    1
    68    59    60    2
    69    59    62   am
    70   110   111    1
    71   111   114    1
    72   106   107    1
    73    36    34   ar
    74    21    20    2
    75   154   155    1
    76    13    12    2
    77    62    63    1
    78   158   155    1
    79   158   160    1
    80    71    69   ar
    81    71    72   ar
    82   125   124    2
    83   124   126   am
    84   153   152    1
    85    69    67   ar
    86   155   156    1
    87    32    31    2
    88    34    35   ar
    89    34    33    1
    90   116   118   ar
    91   116   115   ar
    92    20    19    1
    93    31    30    1
    94   114   115    1
    95    72    70   ar
    96   152   151    1
    97    12    11    1
    98    12    18   am
    99   118   120   ar
   100   126   127    1
   101    63    66    1
   102    63    64    1
   103   115   117   ar
   104    19    18    1
   105    19    22    1
   106    67    66    1
   107    67    68   ar
   108    16    15    2
   109    33    30    1
   110    11    14    1
   111    11    10    1
   112   156   157    2
   113    64    65    2
   114   151   150    1
   115    30    29    1
   116    14    15    1
   117    15    17   am
   118    70    68   ar
   119   120   121    1
   120   120   119   ar
   121   127   130    1
   122   127   128    1
   123   117   119   ar
   124    22    23    1
   125   150   149    1
   126   176   175    1
   127   130   131    1
   128   143   142    1
   129   128   134   am
   130   128   129    2
   131   167   165    1
   132   175   174    1
   133   134   135    1
   134   149   146    1
   135   174   173    1
   136   142   139    1
   137   142   144    1
   138   131   132    1
   139   131   133    1
   140   138   139    1
   141   138   136   am
   142     4     3    2
   143   145   146    1
   144   145   140   am
   145   135   136    1
   146   173   172    1
   147   146   147    1
   148   139   140    1
   149   161   162    1
   150   165   162    1
   151   165   166    1
   152   136   137    2
   153   140   141    2
   154     8     7   ar
   155   162   163    1
   156     3     2    1
   157   172   169    1
   158   147   148    2
   159     7     9   ar
   160     7     6    1
   161     2     5    1
   162     2     1    1
   163     5     6    1
   164   169   168    1
   165   169   170    1
   166   163   164    2
   167   171   170    2
