@<TRIPOS>MOLECULE
tmp/1mx1B03.pdb
 166 154 0 0 0
SMALL
GASTEIGER

@<TRIPOS>ATOM
      1  N          7.8710    5.3040   73.8820 N.3    72  ALA72      -0.1245
      2  CA         8.7040    4.8530   74.9790 C.3    72  ALA72       0.1562
      3  C          9.9200    5.7640   75.0800 C.2    72  ALA72       0.2260
      4  O         10.3920    6.0660   76.1770 O.2    72  ALA72      -0.2867
      5  CB         9.1320    3.4110   74.7490 C.3    72  ALA72       0.0290
      6  N         10.7320    7.9420   78.5720 N.3    76  LEU76      -0.1245
      7  CA        11.9760    7.7770   79.3190 C.3    76  LEU76       0.1561
      8  C         12.7600    9.0860   79.3990 C.2    76  LEU76       0.2260
      9  O         13.2470    9.4620   80.4670 O.2    76  LEU76      -0.2867
     10  CB        12.8620    6.7020   78.6860 C.3    76  LEU76       0.0270
     11  CG        14.2540    6.6180   79.3300 C.3    76  LEU76       0.0019
     12  CD1       14.0810    6.3270   80.8100 C.3    76  LEU76       0.0001
     13  CD2       15.1140    5.5510   78.6650 C.3    76  LEU76       0.0001
     14  N         14.0050   10.8970   82.8460 N.3    80  PHE80      -0.1241
     15  CA        15.4290   11.0080   83.1700 C.3    80  PHE80       0.1605
     16  C         16.0950   12.3590   82.9230 C.2    80  PHE80       0.2264
     17  O         17.1920   12.5980   83.4200 O.2    80  PHE80      -0.2867
     18  CB        16.2220    9.9570   82.3810 C.3    80  PHE80       0.0534
     19  CG        16.1220    8.5610   82.9300 C.ar   80  PHE80      -0.0203
     20  CD1       15.2420    8.2540   83.9650 C.ar   80  PHE80      -0.0042
     21  CD2       16.9240    7.5480   82.4130 C.ar   80  PHE80      -0.0042
     22  CE1       15.1660    6.9630   84.4750 C.ar   80  PHE80      -0.0003
     23  CE2       16.8540    6.2540   82.9170 C.ar   80  PHE80      -0.0003
     24  CZ        15.9750    5.9610   83.9490 C.ar   80  PHE80      -0.0000
     25  N         18.5730    2.7300   78.6400 N.3   121  GLY121     -0.1210
     26  CA        17.3060    2.5610   77.9470 C.3   121  GLY121      0.1956
     27  C         17.2170    1.1600   77.3550 C.2   121  GLY121      0.2612
     28  O         16.6010    0.9400   76.3080 O.2   121  GLY121     -0.2717
     29  N         17.8630    0.2140   78.0300 N.am  122  GLY122     -0.1956
     30  CA        17.8510   -1.1760   77.6100 C.3   122  GLY122      0.1869
     31  C         18.3850   -1.4830   76.2260 C.2   122  GLY122      0.2309
     32  O         18.0740   -2.5350   75.6760 O.2   122  GLY122     -0.2863
     33  N         16.0650    2.1180   73.5820 N.3   125  VAL125     -0.1245
     34  CA        15.6750    3.5220   73.5040 C.3   125  VAL125      0.1561
     35  C         16.6920    4.4170   74.2000 C.2   125  VAL125      0.2260
     36  O         17.6890    3.9340   74.7420 O.2   125  VAL125     -0.2867
     37  CB        14.2930    3.7770   74.1580 C.3   125  VAL125      0.0252
     38  CG1       13.2240    2.9730   73.4460 C.3   125  VAL125      0.0019
     39  CG2       14.3430    3.4310   75.6470 C.3   125  VAL125      0.0019
     40  N         24.5470    4.7220   82.9980 N.3   199  GLU199     -0.1231
     41  CA        23.6930    3.9770   83.8990 C.3   199  GLU199      0.1699
     42  C         22.7930    3.0030   83.1540 C.2   199  GLU199      0.2593
     43  O         22.4570    3.2070   81.9860 O.2   199  GLU199     -0.2718
     44  CB        22.8710    4.9340   84.7800 C.3   199  GLU199      0.0402
     45  CG        21.6630    5.5640   84.1370 C.3   199  GLU199      0.1161
     46  CD        20.3940    4.7630   84.3650 C.2   199  GLU199      0.3649
     47  OE1       20.1300    4.3770   85.5290 O.co2 199  GLU199     -0.2457
     48  OE2       19.6550    4.5290   83.3830 O.co2 199  GLU199     -0.2457
     49  N         22.4240    1.9270   83.8360 N.am  200  SER200     -0.1938
     50  CA        21.5670    0.9220   83.2460 C.3   200  SER200      0.2055
     51  C         22.2780    0.3080   82.0340 C.2   200  SER200      0.2642
     52  O         23.4180   -0.1480   82.1580 O.2   200  SER200     -0.2714
     53  CB        20.2580    1.5740   82.8390 C.3   200  SER200      0.2130
     54  OG        19.2070    0.6660   83.0190 O.3   200  SER200     -0.2179
     55  N         21.6280    0.2910   80.8690 N.am  201  ALA201     -0.1977
     56  CA        22.2730   -0.2730   79.6820 C.3   201  ALA201      0.1597
     57  C         23.5660    0.4880   79.4030 C.2   201  ALA201      0.2287
     58  O         24.4960   -0.0490   78.8050 O.2   201  ALA201     -0.2864
     59  CB        21.3420   -0.1990   78.4670 C.3   201  ALA201      0.0319
     60  N         24.5240   -8.4340   84.1120 N.3   231  THR231     -0.1218
     61  CA        23.0840   -8.2050   84.1640 C.3   231  THR231      0.1862
     62  C         22.5870   -8.9780   82.9430 C.2   231  THR231      0.2287
     63  O         22.3840   -8.4050   81.8750 O.2   231  THR231     -0.2866
     64  CB        22.7290   -6.7050   83.9860 C.3   231  THR231      0.1770
     65  OG1       23.3450   -5.9330   85.0260 O.3   231  THR231     -0.2211
     66  CG2       21.2130   -6.5060   84.0330 C.3   231  THR231      0.0375
     67  N         19.9380  -10.0570   81.4530 N.3   233  VAL233     -0.1231
     68  CA        18.9030   -9.6610   80.5020 C.3   233  VAL233      0.1692
     69  C         19.4080   -8.8250   79.3220 C.2   233  VAL233      0.2591
     70  O         18.7440   -8.7440   78.2890 O.2   233  VAL233     -0.2718
     71  CB        17.7650   -8.8930   81.1990 C.3   233  VAL233      0.0266
     72  CG1       18.2260   -7.5030   81.5700 C.3   233  VAL233      0.0020
     73  CG2       16.5530   -8.8340   80.2910 C.3   233  VAL233      0.0020
     74  N         20.5780   -8.2090   79.4660 N.am  234  LEU234     -0.1980
     75  CA        21.1340   -7.3860   78.3930 C.3   234  LEU234      0.1596
     76  C         22.1670   -8.1090   77.5450 C.2   234  LEU234      0.2287
     77  O         22.5710   -7.6020   76.5040 O.2   234  LEU234     -0.2864
     78  CB        21.7640   -6.1190   78.9700 C.3   234  LEU234      0.0297
     79  CG        20.7970   -5.0560   79.4900 C.3   234  LEU234      0.0022
     80  CD1       21.5530   -4.0190   80.2960 C.3   234  LEU234      0.0001
     81  CD2       20.0700   -4.4170   78.3190 C.3   234  LEU234      0.0001
     82  N         10.7580   -4.4730   75.3720 N.3   283  LEU283     -0.1245
     83  CA        10.6610   -3.7240   76.6210 C.3   283  LEU283      0.1561
     84  C          9.4330   -4.0570   77.4560 C.2   283  LEU283      0.2260
     85  O          9.2020   -3.4280   78.4860 O.2   283  LEU283     -0.2867
     86  CB        10.6500   -2.2180   76.3420 C.3   283  LEU283      0.0270
     87  CG        11.8170   -1.5930   75.5810 C.3   283  LEU283      0.0019
     88  CD1       11.5630   -0.1010   75.4260 C.3   283  LEU283      0.0001
     89  CD2       13.1190   -1.8420   76.3170 C.3   283  LEU283      0.0001
     90  N         14.3730   -7.7190   74.9280 N.3   297  LEU297     -0.1245
     91  CA        15.3800   -6.8000   74.3940 C.3   297  LEU297      0.1561
     92  C         16.3190   -7.4650   73.3970 C.2   297  LEU297      0.2260
     93  O         16.4600   -8.6900   73.3680 O.2   297  LEU297     -0.2867
     94  CB        16.2560   -6.2380   75.5180 C.3   297  LEU297      0.0270
     95  CG        15.6510   -5.6690   76.7990 C.3   297  LEU297      0.0019
     96  CD1       16.7790   -5.3490   77.7610 C.3   297  LEU297      0.0001
     97  CD2       14.8350   -4.4220   76.5040 C.3   297  LEU297      0.0001
     98  N         10.0380    2.4350   88.5750 N.3   337  LEU337     -0.1231
     99  CA        10.3010    2.7710   87.1900 C.3   337  LEU337      0.1693
    100  C         10.3570    1.5850   86.2330 C.2   337  LEU337      0.2591
    101  O          9.5940    1.5310   85.2670 O.2   337  LEU337     -0.2718
    102  CB        11.5990    3.5650   87.0720 C.3   337  LEU337      0.0284
    103  CG        11.8820    4.0330   85.6410 C.3   337  LEU337      0.0019
    104  CD1       11.7660    5.5430   85.5790 C.3   337  LEU337      0.0001
    105  CD2       13.2690    3.5920   85.2100 C.3   337  LEU337      0.0001
    106  N         11.2520    0.6340   86.4870 N.am  338  ILE338     -0.1980
    107  CA        11.3670   -0.5030   85.5860 C.3   338  ILE338      0.1595
    108  C         10.0730   -1.3060   85.4380 C.2   338  ILE338      0.2287
    109  O          9.5950   -1.5020   84.3230 O.2   338  ILE338     -0.2864
    110  CB        12.5240   -1.4400   85.9940 C.3   338  ILE338      0.0276
    111  CG1       13.8490   -0.6740   85.9240 C.3   338  ILE338      0.0022
    112  CG2       12.5700   -2.6480   85.0620 C.3   338  ILE338      0.0022
    113  CD1       15.0660   -1.5100   86.2430 C.3   338  ILE338      0.0001
    114  N          7.5320    0.6370   83.3610 N.3   341  LEU341     -0.1231
    115  CA         7.8350    0.6760   81.9390 C.3   341  LEU341      0.1693
    116  C          7.6380   -0.6670   81.2430 C.2   341  LEU341      0.2591
    117  O          7.4490   -0.7170   80.0270 O.2   341  LEU341     -0.2718
    118  CB         9.2720    1.1530   81.7320 C.3   341  LEU341      0.0284
    119  CG         9.4640    2.6170   82.1290 C.3   341  LEU341      0.0019
    120  CD1       10.9250    2.9140   82.3850 C.3   341  LEU341      0.0001
    121  CD2        8.9020    3.5100   81.0350 C.3   341  LEU341      0.0001
    122  N          7.6750   -1.7490   82.0100 N.am  342  MET342     -0.1979
    123  CA         7.5090   -3.0810   81.4410 C.3   342  MET342      0.1605
    124  C          6.1170   -3.6650   81.6170 C.2   342  MET342      0.2287
    125  O          5.8920   -4.8230   81.2790 O.2   342  MET342     -0.2864
    126  CB         8.5240   -4.0440   82.0500 C.3   342  MET342      0.0413
    127  CG         9.9550   -3.6210   81.8360 C.3   342  MET342      0.0598
    128  SD        11.0810   -5.0140   81.9640 S.3   342  MET342     -0.1393
    129  CE        10.8830   -5.7190   80.3200 C.3   342  MET342      0.0692
    130  N         14.0790  -11.7700   82.6610 N.3   366  LEU366     -0.1245
    131  CA        14.7660  -10.7920   83.4910 C.3   366  LEU366      0.1561
    132  C         15.7170  -11.4290   84.4990 C.2   366  LEU366      0.2260
    133  O         16.8240  -10.9460   84.7030 O.2   366  LEU366     -0.2867
    134  CB        13.7520   -9.9410   84.2570 C.3   366  LEU366      0.0270
    135  CG        12.7830   -9.1030   83.4310 C.3   366  LEU366      0.0019
    136  CD1       11.8870   -8.3190   84.3660 C.3   366  LEU366      0.0001
    137  CD2       13.5560   -8.1630   82.5240 C.3   366  LEU366      0.0001
    138  N         19.1700   -8.8530   89.1420 N.3   403  MET403     -0.1230
    139  CA        19.4840   -8.0560   87.9650 C.3   403  MET403      0.1702
    140  C         20.6420   -7.0850   88.1570 C.2   403  MET403      0.2592
    141  O         21.4510   -6.8910   87.2470 O.2   403  MET403     -0.2718
    142  CB        18.2630   -7.2410   87.5200 C.3   403  MET403      0.0401
    143  CG        17.0700   -8.0350   87.0190 C.3   403  MET403      0.0596
    144  SD        15.7700   -6.8830   86.4540 S.3   403  MET403     -0.1393
    145  CE        16.3890   -6.4480   84.8430 C.3   403  MET403      0.0692
    146  N         20.7210   -6.4810   89.3390 N.am  404  PHE404     -0.1976
    147  CA        21.7410   -5.4740   89.5950 C.3   404  PHE404      0.1639
    148  C         22.6630   -5.6990   90.7910 C.2   404  PHE404      0.2290
    149  O         23.8860   -5.6990   90.6510 O.2   404  PHE404     -0.2864
    150  CB        21.0570   -4.1100   89.7470 C.3   404  PHE404      0.0560
    151  CG        20.0900   -3.7880   88.6390 C.ar  404  PHE404     -0.0200
    152  CD1       18.7220   -3.9780   88.8160 C.ar  404  PHE404     -0.0042
    153  CD2       20.5470   -3.3030   87.4120 C.ar  404  PHE404     -0.0042
    154  CE1       17.8140   -3.6870   87.7870 C.ar  404  PHE404     -0.0003
    155  CE2       19.6530   -3.0100   86.3750 C.ar  404  PHE404     -0.0003
    156  CZ        18.2840   -3.2020   86.5640 C.ar  404  PHE404     -0.0000
    157  N         15.4300    2.9450   90.4100 N.3   446  HIS446     -0.1241
    158  CA        16.2930    2.9290   89.2350 C.3   446  HIS446      0.1621
    159  C         16.3700    4.3360   88.6340 C.2   446  HIS446      0.2264
    160  O         15.3410    4.9630   88.3860 O.2   446  HIS446     -0.2867
    161  CB        15.7190    1.9780   88.1940 C.3   446  HIS446      0.0745
    162  CG        16.6810    1.6180   87.1110 C.ar  446  HIS446      0.0817
    163  ND1       17.7900    0.8300   87.3340 N.ar  446  HIS446     -0.2268
    164  CD2       16.6910    1.9160   85.7910 C.ar  446  HIS446      0.1154
    165  CE1       18.4400    0.6560   86.1970 C.ar  446  HIS446      0.1986
    166  NE2       17.7930    1.3040   85.2460 N.ar  446  HIS446     -0.2212
@<TRIPOS>BOND
     1    93    92    2
     2    92    91    1
     3    38    37    1
     4    34    33    1
     5    34    37    1
     6    34    35    1
     7     1     2    1
     8    37    39    1
     9    35    36    2
    10    91    90    1
    11    91    94    1
    12     5     2    1
    13     2     3    1
    14     3     4    2
    15    82    83    1
    16    88    87    1
    17    94    95    1
    18    87    89    1
    19    87    86    1
    20    32    31    2
    21    31    30    1
    22    28    27    2
    23    86    83    1
    24    77    76    2
    25    97    95    1
    26    83    84    1
    27    95    96    1
    28    27    26    1
    29    27    29   am
    30    84    85    2
    31    76    75    1
    32    30    29    1
    33    26    25    1
    34    70    69    2
    35    81    79    1
    36    75    78    1
    37    75    74    1
    38    59    56    1
    39     6     7    1
    40    13    11    1
    41    10     7    1
    42    10    11    1
    43    58    57    2
    44    78    79    1
    45     7     8    1
    46    69    74   am
    47    69    68    1
    48    11    12    1
    49     8     9    2
    50    57    56    1
    51    79    80    1
    52    56    55    1
    53   117   116    2
    54    73    71    1
    55   129   128    1
    56    68    71    1
    57    68    67    1
    58    55    51   am
    59   121   119    1
    60    71    72    1
    61   116   115    1
    62   116   122   am
    63   125   124    2
    64   123   124    1
    65   123   122    1
    66   123   126    1
    67   118   115    1
    68   118   119    1
    69   127   128    1
    70   127   126    1
    71    63    62    2
    72   115   114    1
    73    43    42    2
    74    51    52    2
    75    51    50    1
    76   119   120    1
    77    18    19    1
    78    18    15    1
    79    21    23   ar
    80    21    19   ar
    81   137   135    1
    82   130   131    1
    83    53    54    1
    84    53    50    1
    85    14    15    1
    86    23    24   ar
    87    16    15    1
    88    16    17    2
    89    19    20   ar
    90    62    61    1
    91    40    41    1
    92    42    49   am
    93    42    41    1
    94    50    49    1
    95    48    46   ar
    96   135   134    1
    97   135   136    1
    98   131   134    1
    99   131   132    1
   100    41    44    1
   101    24    22   ar
   102    20    22   ar
   103    64    66    1
   104    64    61    1
   105    64    65    1
   106    60    61    1
   107    45    46    1
   108    45    44    1
   109   109   108    2
   110    46    47   ar
   111   132   133    2
   112   145   144    1
   113   112   110    1
   114   105   103    1
   115   166   164   ar
   116   166   165   ar
   117   101   100    2
   118   108   107    1
   119   104   103    1
   120   107   110    1
   121   107   106    1
   122   103   102    1
   123   164   162   ar
   124   111   110    1
   125   111   113    1
   126   165   163   ar
   127   100   106   am
   128   100    99    1
   129   155   156   ar
   130   155   153   ar
   131   144   143    1
   132   156   154   ar
   133   143   142    1
   134   102    99    1
   135   162   163   ar
   136   162   161    1
   137    99    98    1
   138   141   140    2
   139   153   151   ar
   140   142   139    1
   141   154   152   ar
   142   139   140    1
   143   139   138    1
   144   140   146   am
   145   161   158    1
   146   160   159    2
   147   159   158    1
   148   151   152   ar
   149   151   150    1
   150   158   157    1
   151   146   147    1
   152   147   150    1
   153   147   148    1
   154   149   148    2
