@<TRIPOS>MOLECULE
tmp/1mx5C01.pdb
 170 157 0 0 0
SMALL
GASTEIGER

@<TRIPOS>ATOM
      1  N          3.4650  -29.6220  101.5340 N.3    72  ALA72      -0.1245
      2  CA         2.6410  -29.2950  102.6960 C.3    72  ALA72       0.1562
      3  C          1.2620  -28.8640  102.2010 C.2    72  ALA72       0.2260
      4  O          0.2300  -29.2800  102.7340 O.2    72  ALA72      -0.2867
      5  CB         3.2940  -28.1610  103.5070 C.3    72  ALA72       0.0290
      6  N         -2.1850  -30.7430  103.2270 N.3    76  LEU76      -0.1245
      7  CA        -3.2260  -30.0810  104.0030 C.3    76  LEU76       0.1561
      8  C         -4.5370  -30.0070  103.2180 C.2    76  LEU76       0.2260
      9  O         -5.6180  -30.0110  103.8030 O.2    76  LEU76      -0.2867
     10  CB        -2.7790  -28.6720  104.4010 C.3    76  LEU76       0.0270
     11  CG        -3.8100  -27.8170  105.1510 C.3    76  LEU76       0.0019
     12  CD1       -4.1420  -28.4540  106.4980 C.3    76  LEU76       0.0001
     13  CD2       -3.2660  -26.4160  105.3440 C.3    76  LEU76       0.0001
     14  N         -8.1140  -31.5740  104.5640 N.3    80  PHE80      -0.1241
     15  CA        -9.2290  -30.6870  104.8600 C.3    80  PHE80       0.1605
     16  C        -10.3500  -30.6970  103.8270 C.2    80  PHE80       0.2264
     17  O        -11.5060  -30.4520  104.1670 O.2    80  PHE80      -0.2867
     18  CB        -8.7220  -29.2500  105.0250 C.3    80  PHE80       0.0534
     19  CG        -8.0670  -28.9690  106.3520 C.ar   80  PHE80      -0.0203
     20  CD1       -7.9550  -29.9580  107.3250 C.ar   80  PHE80      -0.0042
     21  CD2       -7.6160  -27.6840  106.6520 C.ar   80  PHE80      -0.0042
     22  CE1       -7.4070  -29.6650  108.5840 C.ar   80  PHE80      -0.0003
     23  CE2       -7.0690  -27.3830  107.9040 C.ar   80  PHE80      -0.0003
     24  CZ        -6.9670  -28.3740  108.8710 C.ar   80  PHE80      -0.0000
     25  N         -3.9210  -22.5000  107.2080 N.3   121  GLY121     -0.1210
     26  CA        -2.6690  -23.0760  106.7550 C.3   121  GLY121      0.1956
     27  C         -1.5000  -22.2750  107.2830 C.2   121  GLY121      0.2612
     28  O         -0.5130  -22.0690  106.5820 O.2   121  GLY121     -0.2717
     29  N         -1.6320  -21.8110  108.5240 N.am  122  GLY122     -0.1956
     30  CA        -0.5920  -21.0280  109.1730 C.3   122  GLY122      0.1869
     31  C         -0.1070  -19.8070  108.4170 C.2   122  GLY122      0.2309
     32  O          0.9710  -19.2810  108.7280 O.2   122  GLY122     -0.2863
     33  N          0.5130  -21.8530  103.9130 N.3   125  VAL125     -0.1245
     34  CA        -0.0210  -22.6790  102.8370 C.3   125  VAL125      0.1561
     35  C         -1.5400  -22.6250  102.8350 C.2   125  VAL125      0.2260
     36  O         -2.1430  -21.9570  103.6750 O.2   125  VAL125     -0.2867
     37  CB         0.3990  -24.1560  102.9910 C.3   125  VAL125      0.0252
     38  CG1        1.8860  -24.2550  103.2650 C.3   125  VAL125      0.0019
     39  CG2       -0.4070  -24.8100  104.0940 C.3   125  VAL125      0.0019
     40  N        -11.1900  -20.9380  109.3180 N.3   199  GLU199     -0.1231
     41  CA       -10.6480  -21.6900  110.4360 C.3   199  GLU199      0.1699
     42  C         -9.1280  -21.5960  110.5170 C.2   199  GLU199      0.2593
     43  O         -8.4580  -21.3380  109.5140 O.2   199  GLU199     -0.2718
     44  CB       -11.1170  -23.1540  110.3690 C.3   199  GLU199      0.0402
     45  CG       -10.3000  -24.0870  109.5030 C.3   199  GLU199      0.1161
     46  CD        -9.3670  -24.9610  110.3220 C.2   199  GLU199      0.3649
     47  OE1       -9.7320  -25.3260  111.4610 O.co2 199  GLU199     -0.2457
     48  OE2       -8.2760  -25.2990  109.8250 O.co2 199  GLU199     -0.2457
     49  N         -8.5980  -21.7910  111.7250 N.am  200  SER200     -0.1938
     50  CA        -7.1590  -21.7280  111.9830 C.3   200  SER200      0.2055
     51  C         -6.6350  -20.3410  111.5870 C.2   200  SER200      0.2642
     52  O         -7.1440  -19.3260  112.0600 O.2   200  SER200     -0.2714
     53  CB        -6.4380  -22.8310  111.1980 C.3   200  SER200      0.2130
     54  OG        -5.1230  -23.0330  111.6870 O.3   200  SER200     -0.2179
     55  N         -5.6230  -20.2770  110.7300 N.am  201  ALA201     -0.1977
     56  CA        -5.1110  -18.9760  110.3150 C.3   201  ALA201      0.1597
     57  C         -6.2690  -18.1860  109.7000 C.2   201  ALA201      0.2287
     58  O         -6.3220  -16.9640  109.8090 O.2   201  ALA201     -0.2864
     59  CB        -3.9840  -19.1480  109.3100 C.3   201  ALA201      0.0319
     60  N         -9.4310  -20.5990  116.0230 N.3   227  GLY227     -0.1225
     61  CA        -8.3610  -19.6490  115.7600 C.3   227  GLY227      0.1811
     62  C         -8.7680  -18.1960  115.8740 C.2   227  GLY227      0.2280
     63  O         -9.6730  -17.7410  115.1870 O.2   227  GLY227     -0.2866
     64  N         -4.1910  -16.0570  119.2810 N.3   231  THR231     -0.1218
     65  CA        -3.3670  -17.2440  119.0520 C.3   231  THR231      0.1862
     66  C         -2.0050  -16.6400  118.6720 C.2   231  THR231      0.2287
     67  O         -1.7020  -16.4360  117.4890 O.2   231  THR231     -0.2866
     68  CB        -3.9220  -18.0930  117.8670 C.3   231  THR231      0.1770
     69  OG1       -5.3030  -18.4010  118.1010 O.3   231  THR231     -0.2211
     70  CG2       -3.1390  -19.3960  117.7140 C.3   231  THR231      0.0375
     71  N          1.1780  -17.4170  118.2040 N.3   233  VAL233     -0.1231
     72  CA         2.0330  -17.8920  117.1250 C.3   233  VAL233      0.1692
     73  C          1.9270  -17.1040  115.8130 C.2   233  VAL233      0.2591
     74  O          2.9460  -16.7820  115.2040 O.2   233  VAL233     -0.2718
     75  CB         1.7690  -19.3820  116.8230 C.3   233  VAL233      0.0266
     76  CG1        0.3730  -19.5570  116.2320 C.3   233  VAL233      0.0020
     77  CG2        2.8420  -19.9160  115.8820 C.3   233  VAL233      0.0020
     78  N          0.7040  -16.7820  115.3930 N.am  234  LEU234     -0.1980
     79  CA         0.4780  -16.0690  114.1340 C.3   234  LEU234      0.1596
     80  C          0.5980  -14.5560  114.1640 C.2   234  LEU234      0.2287
     81  O          0.6120  -13.9220  113.1150 O.2   234  LEU234     -0.2864
     82  CB        -0.8930  -16.4290  113.5670 C.3   234  LEU234      0.0297
     83  CG        -1.1290  -17.9080  113.2870 C.3   234  LEU234      0.0022
     84  CD1       -2.5620  -18.1010  112.8220 C.3   234  LEU234      0.0001
     85  CD2       -0.1410  -18.4020  112.2470 C.3   234  LEU234      0.0001
     86  N          7.0890  -24.6100  109.1070 N.3   283  LEU283     -0.1245
     87  CA         6.0560  -25.3160  109.8680 C.3   283  LEU283      0.1561
     88  C          6.5790  -26.5330  110.6220 C.2   283  LEU283      0.2260
     89  O          5.8020  -27.3550  111.0990 O.2   283  LEU283     -0.2867
     90  CB         4.9110  -25.7560  108.9480 C.3   283  LEU283      0.0270
     91  CG         4.3860  -24.7840  107.8840 C.3   283  LEU283      0.0019
     92  CD1        4.2480  -23.3820  108.4730 C.3   283  LEU283      0.0001
     93  CD2        5.3240  -24.7920  106.6780 C.3   283  LEU283      0.0001
     94  N          7.7790  -18.0690  112.7190 N.3   297  LEU297     -0.1245
     95  CA         6.9180  -18.1890  111.5470 C.3   297  LEU297      0.1561
     96  C          6.4020  -16.8250  111.1030 C.2   297  LEU297      0.2260
     97  O          6.0700  -15.9830  111.9320 O.2   297  LEU297     -0.2867
     98  CB         5.7250  -19.0970  111.8520 C.3   297  LEU297      0.0270
     99  CG         5.4560  -20.2020  110.8310 C.3   297  LEU297      0.0019
    100  CD1        4.0670  -20.7910  111.0580 C.3   297  LEU297      0.0001
    101  CD2        5.5630  -19.6280  109.4310 C.3   297  LEU297      0.0001
    102  N         -3.6580  -33.7990  114.0730 N.3   337  LEU337     -0.1231
    103  CA        -3.2600  -33.0030  112.9120 C.3   337  LEU337      0.1693
    104  C         -2.0590  -32.0720  113.0490 C.2   337  LEU337      0.2591
    105  O         -1.0140  -32.3140  112.4520 O.2   337  LEU337     -0.2718
    106  CB        -4.4430  -32.1830  112.3980 C.3   337  LEU337      0.0284
    107  CG        -4.1530  -31.5320  111.0390 C.3   337  LEU337      0.0019
    108  CD1       -4.3660  -32.5430  109.9320 C.3   337  LEU337      0.0001
    109  CD2       -5.0540  -30.3390  110.8350 C.3   337  LEU337      0.0001
    110  N         -2.2140  -30.9930  113.8060 N.am  338  ILE338     -0.1980
    111  CA        -1.1260  -30.0340  113.9690 C.3   338  ILE338      0.1595
    112  C          0.2170  -30.6710  114.3530 C.2   338  ILE338      0.2287
    113  O          1.2550  -30.3140  113.7940 O.2   338  ILE338     -0.2864
    114  CB        -1.4980  -28.9460  115.0010 C.3   338  ILE338      0.0276
    115  CG1       -2.7490  -28.1910  114.5370 C.3   338  ILE338      0.0022
    116  CG2       -0.3470  -27.9770  115.1710 C.3   338  ILE338      0.0022
    117  CD1       -3.3110  -27.2350  115.5860 C.3   338  ILE338      0.0001
    118  N          1.6480  -32.8140  111.4620 N.3   341  LEU341     -0.1231
    119  CA         2.1480  -31.9340  110.4170 C.3   341  LEU341      0.1693
    120  C          3.3560  -31.1170  110.8320 C.2   341  LEU341      0.2591
    121  O          3.9800  -30.4700  110.0000 O.2   341  LEU341     -0.2718
    122  CB         1.0340  -31.0020  109.9370 C.3   341  LEU341      0.0284
    123  CG        -0.0100  -31.6970  109.0650 C.3   341  LEU341      0.0019
    124  CD1       -1.1240  -30.7370  108.6920 C.3   341  LEU341      0.0001
    125  CD2        0.6720  -32.2340  107.8220 C.3   341  LEU341      0.0001
    126  N          3.6790  -31.1320  112.1180 N.am  342  MET342     -0.1979
    127  CA         4.8360  -30.3930  112.6080 C.3   342  MET342      0.1605
    128  C          5.9550  -31.3420  113.0080 C.2   342  MET342      0.2287
    129  O          7.0220  -30.9090  113.4450 O.2   342  MET342     -0.2864
    130  CB         4.4480  -29.5040  113.7880 C.3   342  MET342      0.0413
    131  CG         3.8000  -28.1970  113.3600 C.3   342  MET342      0.0598
    132  SD         3.5600  -27.0540  114.7210 S.3   342  MET342     -0.1393
    133  CE         5.2430  -26.9060  115.3300 C.3   342  MET342      0.0692
    134  N          5.6420  -22.0310  119.5790 N.3   366  LEU366     -0.1245
    135  CA         4.1960  -22.2140  119.4650 C.3   366  LEU366      0.1561
    136  C          3.4160  -21.6840  120.6600 C.2   366  LEU366      0.2260
    137  O          2.6510  -20.7340  120.5370 O.2   366  LEU366     -0.2867
    138  CB         3.8540  -23.6930  119.2790 C.3   366  LEU366      0.0270
    139  CG         4.1250  -24.3290  117.9190 C.3   366  LEU366      0.0019
    140  CD1        3.5870  -25.7490  117.9280 C.3   366  LEU366      0.0001
    141  CD2        3.4570  -23.5180  116.8210 C.3   366  LEU366      0.0001
    142  N         -3.1050  -22.5100  122.6700 N.3   403  MET403     -0.1230
    143  CA        -3.1680  -22.0080  121.3100 C.3   403  MET403      0.1702
    144  C         -4.5610  -21.6030  120.8650 C.2   403  MET403      0.2592
    145  O         -4.7160  -20.6250  120.1390 O.2   403  MET403     -0.2718
    146  CB        -2.6260  -23.0450  120.3380 C.3   403  MET403      0.0401
    147  CG        -1.1920  -23.4420  120.5810 C.3   403  MET403      0.0596
    148  SD        -0.6470  -24.5210  119.2500 S.3   403  MET403     -0.1393
    149  CE         0.3290  -23.3850  118.2850 C.3   403  MET403      0.0692
    150  N         -5.5770  -22.3420  121.2990 N.am  404  PHE404     -0.1976
    151  CA        -6.9400  -22.0320  120.8850 C.3   404  PHE404      0.1639
    152  C         -7.9560  -21.8520  122.0010 C.2   404  PHE404      0.2290
    153  O         -8.7160  -20.8920  121.9980 O.2   404  PHE404     -0.2864
    154  CB        -7.4330  -23.1090  119.9230 C.3   404  PHE404      0.0560
    155  CG        -6.4590  -23.4280  118.8330 C.ar  404  PHE404     -0.0200
    156  CD1       -5.5630  -24.4840  118.9730 C.ar  404  PHE404     -0.0042
    157  CD2       -6.4330  -22.6750  117.6660 C.ar  404  PHE404     -0.0042
    158  CE1       -4.6520  -24.7890  117.9610 C.ar  404  PHE404     -0.0003
    159  CE2       -5.5270  -22.9700  116.6460 C.ar  404  PHE404     -0.0003
    160  CZ        -4.6350  -24.0300  116.7950 C.ar  404  PHE404     -0.0000
    161  N         -8.1810  -30.8510  115.3490 N.3   446  HIS446     -0.1241
    162  CA        -8.0820  -29.6070  114.5930 C.3   446  HIS446      0.1621
    163  C         -8.6530  -29.8270  113.1850 C.2   446  HIS446      0.2264
    164  O         -8.2700  -30.7700  112.4900 O.2   446  HIS446     -0.2867
    165  CB        -6.6190  -29.1710  114.4910 C.3   446  HIS446      0.0745
    166  CG        -6.4320  -27.7900  113.9400 C.ar  446  HIS446      0.0817
    167  ND1       -6.7860  -26.6550  114.6380 N.ar  446  HIS446     -0.2268
    168  CD2       -5.9170  -27.3610  112.7620 C.ar  446  HIS446      0.1154
    169  CE1       -6.4950  -25.5870  113.9170 C.ar  446  HIS446      0.1986
    170  NE2       -5.9680  -25.9870  112.7740 N.ar  446  HIS446     -0.2212
@<TRIPOS>BOND
     1     1     2    1
     2     3     2    1
     3     3     4    2
     4     2     5    1
     5    35    34    1
     6    35    36    2
     7    34    37    1
     8    34    33    1
     9    37    38    1
    10    37    39    1
    11     8     9    2
    12     8     7    1
    13     6     7    1
    14    16    17    2
    15    16    15    1
    16     7    10    1
    17    10    11    1
    18    14    15    1
    19    15    18    1
    20    18    19    1
    21    11    13    1
    22    11    12    1
    23    19    21   ar
    24    19    20   ar
    25    28    27    2
    26    21    23   ar
    27    93    91    1
    28    26    25    1
    29    26    27    1
    30    27    29   am
    31    20    22   ar
    32   125   123    1
    33    91    92    1
    34    91    90    1
    35    23    24   ar
    36    31    32    2
    37    31    30    1
    38    29    30    1
    39    22    24   ar
    40   124   123    1
    41    90    87    1
    42   123   122    1
    43    86    87    1
    44    59    56    1
    45    40    41    1
    46   101    99    1
    47    45    46    1
    48    45    44    1
    49    43    42    2
    50    57    58    2
    51    57    56    1
    52    48    46   ar
    53    87    88    1
    54   108   107    1
    55   122   119    1
    56   121   120    2
    57    56    55    1
    58    46    47   ar
    59    44    41    1
    60   119   120    1
    61   119   118    1
    62    41    42    1
    63    42    49   am
    64    88    89    2
    65    55    51   am
    66    99   100    1
    67    99    98    1
    68   120   126   am
    69   109   107    1
    70   107   106    1
    71    96    95    1
    72    96    97    2
    73    53    54    1
    74    53    50    1
    75    95    98    1
    76    95    94    1
    77    51    50    1
    78    51    52    2
    79    49    50    1
    80   126   127    1
    81    85    83    1
    82   106   103    1
    83   105   104    2
    84   164   163    2
    85   127   128    1
    86   127   130    1
    87   168   170   ar
    88   168   166   ar
    89   170   169   ar
    90    84    83    1
    91   103   104    1
    92   103   102    1
    93   128   129    2
    94   104   110   am
    95    81    80    2
    96   163   162    1
    97    83    82    1
    98   131   130    1
    99   131   132    1
   100    82    79    1
   101   113   112    2
   102   110   111    1
   103   169   167   ar
   104   166   165    1
   105   166   167   ar
   106   111   112    1
   107   111   114    1
   108    79    80    1
   109    79    78    1
   110   165   162    1
   111   115   114    1
   112   115   117    1
   113   162   161    1
   114   132   133    1
   115   114   116    1
   116    63    62    2
   117    74    73    2
   118    78    73   am
   119    61    62    1
   120    61    60    1
   121    73    72    1
   122    77    75    1
   123    76    75    1
   124   159   160   ar
   125   159   157   ar
   126   160   158   ar
   127   141   139    1
   128    75    72    1
   129    72    71    1
   130    67    66    2
   131   157   155   ar
   132    70    68    1
   133    68    69    1
   134    68    65    1
   135   139   140    1
   136   139   138    1
   137   158   156   ar
   138   149   148    1
   139    66    65    1
   140   155   156   ar
   141   155   154    1
   142    65    64    1
   143   148   147    1
   144   138   135    1
   145   135   134    1
   146   135   136    1
   147   154   151    1
   148   145   144    2
   149   146   147    1
   150   146   143    1
   151   137   136    2
   152   144   150   am
   153   144   143    1
   154   151   150    1
   155   151   152    1
   156   143   142    1
   157   153   152    2
