@<TRIPOS>MOLECULE
tmp/1mx5C02.pdb
 106 100 0 0 0
SMALL
GASTEIGER

@<TRIPOS>ATOM
      1  N        -10.2960  -31.6660  120.8420 N.3   332  GLN332     -0.1245
      2  CA        -8.8650  -31.9350  120.8600 C.3   332  GLN332      0.1566
      3  C         -8.1540  -31.1950  119.7370 C.2   332  GLN332      0.2260
      4  O         -7.7880  -31.8030  118.7340 O.2   332  GLN332     -0.2867
      5  CB        -8.6240  -33.4460  120.7260 C.3   332  GLN332      0.0367
      6  CG        -9.0220  -34.2620  121.9600 C.3   332  GLN332      0.0905
      7  CD        -9.0570  -35.7600  121.6990 C.2   332  GLN332      0.2608
      8  OE1       -8.0920  -36.3440  121.2060 O.2   332  GLN332     -0.2717
      9  NE2      -10.1750  -36.3910  122.0370 N.am  332  GLN332     -0.0878
     10  N         -4.9410  -32.6040  119.0010 N.3   335  GLY335     -0.1210
     11  CA        -5.1040  -34.0420  119.0060 C.3   335  GLY335      0.1956
     12  C         -4.1130  -34.7870  118.1450 C.2   335  GLY335      0.2611
     13  O         -3.2230  -35.4340  118.6680 O.2   335  GLY335     -0.2717
     14  N         -4.2460  -34.6750  116.8300 N.am  336  TRP336     -0.1976
     15  CA        -3.3670  -35.3820  115.9140 C.3   336  TRP336      0.1640
     16  C         -2.7950  -34.5530  114.7500 C.2   336  TRP336      0.2290
     17  O         -1.5950  -34.6030  114.4720 O.2   336  TRP336     -0.2864
     18  CB        -4.1240  -36.5810  115.3460 C.3   336  TRP336      0.0576
     19  CG        -3.3800  -37.2980  114.2810 C.ar  336  TRP336      0.0006
     20  CD1       -2.2890  -38.0970  114.4430 C.ar  336  TRP336      0.0946
     21  CD2       -3.6280  -37.2340  112.8740 C.ar  336  TRP336      0.0152
     22  NE1       -1.8360  -38.5340  113.2230 N.ar  336  TRP336     -0.2442
     23  CE2       -2.6390  -38.0190  112.2410 C.ar  336  TRP336      0.0810
     24  CE3       -4.5870  -36.5880  112.0850 C.ar  336  TRP336      0.0012
     25  CZ2       -2.5820  -38.1770  110.8510 C.ar  336  TRP336      0.0191
     26  CZ3       -4.5290  -36.7450  110.6990 C.ar  336  TRP336      0.0001
     27  CH2       -3.5310  -37.5340  110.1000 C.ar  336  TRP336      0.0015
     28  N          0.2180  -31.6230  115.3060 N.3   339  PRO339     -0.2116
     29  CA         1.4660  -32.2760  115.7220 C.3   339  PRO339      0.1372
     30  C          2.0570  -33.1190  114.5960 C.2   339  PRO339      0.2244
     31  O          3.2500  -33.0620  114.3130 O.2   339  PRO339     -0.2868
     32  CB         1.0340  -33.1500  116.9000 C.3   339  PRO339      0.0268
     33  CG        -0.1950  -32.4930  117.3970 C.3   339  PRO339      0.0207
     34  CD        -0.9010  -32.0840  116.1410 C.3   339  PRO339      0.0892
     35  N          6.5650  -37.5160  119.3760 N.3   346  LEU346     -0.1231
     36  CA         5.6210  -38.2310  120.2240 C.3   346  LEU346      0.1693
     37  C          5.4000  -39.6490  119.7400 C.2   346  LEU346      0.2592
     38  O          4.4340  -40.3080  120.1290 O.2   346  LEU346     -0.2718
     39  CB         4.2850  -37.4930  120.2640 C.3   346  LEU346      0.0284
     40  CG         4.2800  -36.1790  121.0410 C.3   346  LEU346      0.0019
     41  CD1        2.9380  -35.4920  120.8650 C.3   346  LEU346      0.0001
     42  CD2        4.5600  -36.4550  122.5110 C.3   346  LEU346      0.0001
     43  N          6.3040  -40.1180  118.8890 N.am  347  SER347     -0.1952
     44  CA         6.2020  -41.4650  118.3560 C.3   347  SER347      0.1924
     45  C          6.1440  -42.4390  119.5310 C.2   347  SER347      0.2314
     46  O          5.6750  -43.5700  119.4000 O.2   347  SER347     -0.2863
     47  CB         7.4080  -41.7670  117.4660 C.3   347  SER347      0.2116
     48  OG         7.1490  -42.8790  116.6300 O.3   347  SER347     -0.2180
     49  N          4.2720  -42.3790  122.3400 N.3   349  GLY349     -0.1225
     50  CA         2.9480  -42.7670  122.7930 C.3   349  GLY349      0.1811
     51  C          2.8050  -42.5620  124.2910 C.2   349  GLY349      0.2280
     52  O          1.7120  -42.6620  124.8490 O.2   349  GLY349     -0.2866
     53  N          0.7360  -37.7470  128.0900 N.3   392  LYS392     -0.1231
     54  CA         0.9560  -37.1880  126.7590 C.3   392  LYS392      0.1693
     55  C         -0.3330  -36.5090  126.3020 C.2   392  LYS392      0.2592
     56  O         -0.3030  -35.4810  125.6270 O.2   392  LYS392     -0.2718
     57  CB         1.3170  -38.2760  125.7490 C.3   392  LYS392      0.0285
     58  CG         0.1260  -39.1110  125.3420 C.3   392  LYS392      0.0035
     59  CD         0.3280  -39.7800  124.0050 C.3   392  LYS392      0.0206
     60  CE        -0.9210  -40.5450  123.6110 C.3   392  LYS392      0.1093
     61  NZ        -0.7230  -41.2870  122.3430 N.3   392  LYS392     -0.1314
     62  N         -1.4650  -37.0940  126.6770 N.am  393  ASP393     -0.1974
     63  CA        -2.7570  -36.5470  126.3050 C.3   393  ASP393      0.1709
     64  C         -3.0380  -35.2540  127.0520 C.2   393  ASP393      0.2293
     65  O         -3.5790  -34.3010  126.4830 O.2   393  ASP393     -0.2864
     66  CB        -3.8550  -37.5680  126.5780 C.3   393  ASP393      0.1436
     67  CG        -3.7120  -38.8040  125.7230 C.2   393  ASP393      0.3671
     68  OD1       -3.3820  -38.6640  124.5240 O.co2 393  ASP393     -0.2456
     69  OD2       -3.9380  -39.9150  126.2430 O.co2 393  ASP393     -0.2456
     70  N         -1.2260  -32.7340  125.4030 N.3   396  LEU396     -0.1245
     71  CA        -1.9120  -32.2560  124.2080 C.3   396  LEU396      0.1561
     72  C         -3.0380  -31.2940  124.5800 C.2   396  LEU396      0.2260
     73  O         -3.2910  -30.3250  123.8680 O.2   396  LEU396     -0.2867
     74  CB        -2.4760  -33.4310  123.4030 C.3   396  LEU396      0.0270
     75  CG        -1.4640  -34.4660  122.9010 C.3   396  LEU396      0.0019
     76  CD1       -2.1800  -35.4900  122.0470 C.3   396  LEU396      0.0001
     77  CD2       -0.3670  -33.7900  122.0990 C.3   396  LEU396      0.0001
     78  N         -4.2500  -42.6720  109.2240 N.3   437  MET437     -0.1245
     79  CA        -3.1600  -42.5970  110.1910 C.3   437  MET437      0.1570
     80  C         -3.5400  -41.8350  111.4650 C.2   437  MET437      0.2261
     81  O         -2.6910  -41.5270  112.3010 O.2   437  MET437     -0.2867
     82  CB        -1.9540  -41.9340  109.5280 C.3   437  MET437      0.0387
     83  CG        -1.6040  -42.5300  108.1750 C.3   437  MET437      0.0595
     84  SD        -0.2680  -41.6380  107.3670 S.3   437  MET437     -0.1393
     85  CE        -1.1490  -40.1560  106.7580 C.3   437  MET437      0.0692
     86  N         -5.4070  -41.6770  115.0540 N.3   439  PRO439     -0.2116
     87  CA        -5.8410  -42.5370  116.1590 C.3   439  PRO439      0.1372
     88  C         -7.3510  -42.4800  116.3860 C.2   439  PRO439      0.2244
     89  O         -7.9370  -41.3990  116.4570 O.2   439  PRO439     -0.2868
     90  CB        -5.0610  -41.9810  117.3450 C.3   439  PRO439      0.0268
     91  CG        -3.7820  -41.5210  116.7050 C.3   439  PRO439      0.0207
     92  CD        -4.2870  -40.8130  115.4720 C.3   439  PRO439      0.0892
     93  N         -8.9700  -42.7210  118.8860 N.3   441  THR441     -0.1203
     94  CA        -9.3200  -42.0600  120.1390 C.3   441  THR441      0.1994
     95  C         -9.4580  -40.5430  120.0160 C.2   441  THR441      0.2617
     96  O        -10.0200  -39.8880  120.8950 O.2   441  THR441     -0.2717
     97  CB        -8.2720  -42.3740  121.2370 C.3   441  THR441      0.1784
     98  OG1       -7.0180  -41.7560  120.9090 O.3   441  THR441     -0.2211
     99  CG2       -8.0670  -43.8740  121.3490 C.3   441  THR441      0.0376
    100  N         -8.9490  -39.9900  118.9200 N.am  442  VAL442     -0.1979
    101  CA        -8.9990  -38.5510  118.6910 C.3   442  VAL442      0.1595
    102  C        -10.3650  -38.1010  118.1980 C.2   442  VAL442      0.2287
    103  O        -10.7730  -38.4390  117.0870 O.2   442  VAL442     -0.2864
    104  CB        -7.9640  -38.1160  117.6390 C.3   442  VAL442      0.0276
    105  CG1       -7.7020  -36.6270  117.7490 C.3   442  VAL442      0.0022
    106  CG2       -6.6940  -38.9090  117.8090 C.3   442  VAL442      0.0022
@<TRIPOS>BOND
     1    85    84    1
     2    84    83    1
     3    83    82    1
     4    78    79    1
     5    82    79    1
     6    27    26   ar
     7    27    25   ar
     8    79    80    1
     9    26    24   ar
    10    25    23   ar
    11    80    81    2
    12    24    21   ar
    13    23    21   ar
    14    23    22   ar
    15    21    19   ar
    16    22    20   ar
    17    19    20   ar
    18    19    18    1
    19    31    30    2
    20    17    16    2
    21    30    29    1
    22    16    15    1
    23    86    92    1
    24    86    87    1
    25    28    29    1
    26    28    34    1
    27    18    15    1
    28    92    91    1
    29    29    32    1
    30    15    14    1
    31    34    33    1
    32    87    88    1
    33    87    90    1
    34    88    89    2
    35    48    47    1
    36    91    90    1
    37    14    12   am
    38    32    33    1
    39   103   102    2
    40    47    44    1
    41   104   105    1
    42   104   106    1
    43   104   101    1
    44    12    13    2
    45    12    11    1
    46   102   101    1
    47    44    43    1
    48    44    45    1
    49   101   100    1
    50     4     3    2
    51    93    94    1
    52    43    37   am
    53   100    95   am
    54    10    11    1
    55    35    36    1
    56    46    45    2
    57     3     2    1
    58    37    38    2
    59    37    36    1
    60    95    94    1
    61    95    96    2
    62    94    97    1
    63    36    39    1
    64    39    40    1
    65     5     2    1
    66     5     6    1
    67     1     2    1
    68    41    40    1
    69    98    97    1
    70    40    42    1
    71     8     7    2
    72    97    99    1
    73     7     6    1
    74     7     9   am
    75    76    75    1
    76    77    75    1
    77    49    50    1
    78    61    60    1
    79    50    51    1
    80    75    74    1
    81    74    71    1
    82    60    59    1
    83    73    72    2
    84    59    58    1
    85    71    72    1
    86    71    70    1
    87    51    52    2
    88    68    67   ar
    89    58    57    1
    90    56    55    2
    91    67    69   ar
    92    67    66    1
    93    57    54    1
    94    55    62   am
    95    55    54    1
    96    63    66    1
    97    63    62    1
    98    63    64    1
    99    65    64    2
   100    54    53    1
