@<TRIPOS>MOLECULE
tmp/1mx9D01.pdb
 179 167 0 0 0
SMALL
GASTEIGER

@<TRIPOS>ATOM
      1  N        -22.1580  -26.8100  -19.1560 N.3    73  ALA73      -0.1245
      2  CA       -22.7840  -28.1210  -19.3100 C.3    73  ALA73       0.1562
      3  C        -24.1080  -28.0080  -20.0460 C.2    73  ALA73       0.2260
      4  O        -24.4510  -28.8680  -20.8560 O.2    73  ALA73      -0.2867
      5  CB       -23.0130  -28.7540  -17.9500 C.3    73  ALA73       0.0290
      6  N        -23.4390  -27.6060  -23.6910 N.3    76  LEU76      -0.1231
      7  CA       -22.9040  -28.8540  -24.1950 C.3    76  LEU76       0.1693
      8  C        -24.0250  -29.8440  -24.4220 C.2    76  LEU76       0.2591
      9  O        -24.1320  -30.4220  -25.4970 O.2    76  LEU76      -0.2718
     10  CB       -21.8890  -29.4410  -23.2170 C.3    76  LEU76       0.0284
     11  CG       -21.3200  -30.7980  -23.6480 C.3    76  LEU76       0.0019
     12  CD1      -20.4910  -30.6260  -24.9050 C.3    76  LEU76       0.0001
     13  CD2      -20.4790  -31.3900  -22.5420 C.3    76  LEU76       0.0001
     14  N        -24.8670  -30.0420  -23.4160 N.am   77  LEU77      -0.1980
     15  CA       -25.9680  -30.9780  -23.5650 C.3    77  LEU77       0.1596
     16  C        -26.8840  -30.5500  -24.6940 C.2    77  LEU77       0.2287
     17  O        -27.2530  -31.3720  -25.5360 O.2    77  LEU77      -0.2864
     18  CB       -26.7860  -31.1020  -22.2740 C.3    77  LEU77       0.0297
     19  CG       -27.9140  -32.1410  -22.3970 C.3    77  LEU77       0.0022
     20  CD1      -27.2830  -33.4930  -22.6040 C.3    77  LEU77       0.0001
     21  CD2      -28.8100  -32.1620  -21.1700 C.3    77  LEU77       0.0001
     22  N        -27.9450  -32.8180  -28.0200 N.3    81  PHE81      -0.1241
     23  CA       -29.2930  -33.3550  -28.1710 C.3    81  PHE81       0.1605
     24  C        -30.2010  -32.6270  -29.1320 C.2    81  PHE81       0.2264
     25  O        -31.3120  -33.0830  -29.3880 O.2    81  PHE81      -0.2867
     26  CB       -30.0000  -33.4220  -26.8090 C.3    81  PHE81       0.0534
     27  CG       -29.5920  -34.5950  -25.9620 C.ar   81  PHE81      -0.0203
     28  CD1      -28.4430  -35.3340  -26.2620 C.ar   81  PHE81      -0.0042
     29  CD2      -30.3430  -34.9510  -24.8520 C.ar   81  PHE81      -0.0042
     30  CE1      -28.0500  -36.4060  -25.4720 C.ar   81  PHE81      -0.0003
     31  CE2      -29.9540  -36.0210  -24.0570 C.ar   81  PHE81      -0.0003
     32  CZ       -28.7980  -36.7490  -24.3770 C.ar   81  PHE81      -0.0000
     33  N        -34.8290  -33.6830  -20.5330 N.3   121  GLY121     -0.1210
     34  CA       -34.0050  -34.3380  -19.5380 C.3   121  GLY121      0.1956
     35  C        -32.8150  -33.4550  -19.2470 C.2   121  GLY121      0.2612
     36  O        -32.7360  -32.3360  -19.7510 O.2   121  GLY121     -0.2717
     37  N        -31.8780  -33.9600  -18.4520 N.am  122  GLY122     -0.1942
     38  CA       -30.7120  -33.1780  -18.0850 C.3   122  GLY122      0.2014
     39  C        -30.4240  -33.3340  -16.5960 C.2   122  GLY122      0.2639
     40  O        -29.9110  -32.4140  -15.9370 O.2   122  GLY122     -0.2714
     41  N        -30.7630  -34.5060  -16.0620 N.am  123  GLY123     -0.1954
     42  CA       -30.5120  -34.7920  -14.6610 C.3   123  GLY123      0.1869
     43  C        -31.0840  -33.7650  -13.7100 C.2   123  GLY123      0.2309
     44  O        -30.5520  -33.5470  -12.6190 O.2   123  GLY123     -0.2863
     45  N        -29.5410  -29.5510  -15.5360 N.3   126  VAL126     -0.1245
     46  CA       -29.3670  -28.7030  -16.7190 C.3   126  VAL126      0.1561
     47  C        -30.4270  -29.0660  -17.7720 C.2   126  VAL126      0.2260
     48  O        -31.2230  -29.9720  -17.5540 O.2   126  VAL126     -0.2867
     49  CB       -27.9340  -28.8740  -17.3360 C.3   126  VAL126      0.0252
     50  CG1      -26.8790  -28.9320  -16.2270 C.3   126  VAL126      0.0019
     51  CG2      -27.8760  -30.1110  -18.2150 C.3   126  VAL126      0.0019
     52  N        -37.3470  -37.6530  -21.9420 N.3   200  GLU200     -0.1231
     53  CA       -36.1930  -38.5340  -21.9350 C.3   200  GLU200      0.1699
     54  C        -35.3630  -38.3530  -20.6840 C.2   200  GLU200      0.2592
     55  O        -35.2130  -37.2440  -20.1870 O.2   200  GLU200     -0.2718
     56  CB       -35.3550  -38.2620  -23.1790 C.3   200  GLU200      0.0402
     57  CG       -34.3330  -39.3160  -23.4550 C.3   200  GLU200      0.1161
     58  CD       -32.9560  -38.8940  -23.0170 C.2   200  GLU200      0.3649
     59  OE1      -32.8660  -37.9170  -22.2370 O.co2 200  GLU200     -0.2457
     60  OE2      -31.9710  -39.5380  -23.4490 O.co2 200  GLU200     -0.2457
     61  N        -34.8360  -39.4620  -20.1740 N.am  201  SER201     -0.1952
     62  CA       -34.0010  -39.4860  -18.9710 C.3   201  SER201      0.1924
     63  C        -34.7170  -38.8440  -17.7940 C.2   201  SER201      0.2314
     64  O        -35.7640  -39.3400  -17.3710 O.2   201  SER201     -0.2863
     65  CB       -32.6690  -38.7840  -19.2370 C.3   201  SER201      0.2116
     66  OG       -31.7410  -38.9830  -18.1820 O.3   201  SER201     -0.2180
     67  N        -35.3640  -45.0470  -10.9320 N.3   232  THR232     -0.1218
     68  CA       -33.9550  -44.8020  -11.2760 C.3   232  THR232      0.1862
     69  C        -33.2070  -44.2290  -10.0630 C.2   232  THR232      0.2287
     70  O        -33.0080  -43.0250   -9.9230 O.2   232  THR232     -0.2866
     71  CB       -33.8030  -43.8290  -12.4980 C.3   232  THR232      0.1770
     72  OG1      -34.2300  -44.4850  -13.6990 O.3   232  THR232     -0.2211
     73  CG2      -32.3520  -43.4090  -12.6740 C.3   232  THR232      0.0375
     74  N        -30.7300  -42.8680   -8.6690 N.3   234  VAL234     -0.1231
     75  CA       -30.1470  -41.5340   -8.4720 C.3   234  VAL234      0.1692
     76  C        -31.0620  -40.3080   -8.5520 C.2   234  VAL234      0.2591
     77  O        -30.8350  -39.3120   -7.8450 O.2   234  VAL234     -0.2718
     78  CB       -28.9320  -41.2920   -9.4270 C.3   234  VAL234      0.0266
     79  CG1      -29.3870  -41.3070  -10.8800 C.3   234  VAL234      0.0020
     80  CG2      -28.2570  -39.9630   -9.0880 C.3   234  VAL234      0.0020
     81  N        -32.0840  -40.3630   -9.3990 N.am  235  LEU235     -0.1980
     82  CA       -32.9720  -39.2200   -9.5290 C.3   235  LEU235      0.1596
     83  C        -33.9270  -39.0330   -8.3580 C.2   235  LEU235      0.2287
     84  O        -34.5190  -37.9710   -8.2210 O.2   235  LEU235     -0.2864
     85  CB       -33.7420  -39.2800  -10.8550 C.3   235  LEU235      0.0297
     86  CG       -32.8810  -38.9500  -12.0810 C.3   235  LEU235      0.0022
     87  CD1      -33.7280  -38.9760  -13.3270 C.3   235  LEU235      0.0001
     88  CD2      -32.2490  -37.5800  -11.9270 C.3   235  LEU235      0.0001
     89  N        -23.3940  -33.4360  -10.9750 N.3   284  LEU284     -0.1231
     90  CA       -23.1870  -33.9890  -12.3050 C.3   284  LEU284      0.1693
     91  C        -21.8080  -34.6100  -12.5390 C.2   284  LEU284      0.2592
     92  O        -21.3800  -34.7650  -13.6780 O.2   284  LEU284     -0.2718
     93  CB       -23.4400  -32.8800  -13.3340 C.3   284  LEU284      0.0284
     94  CG       -24.8860  -32.3960  -13.5700 C.3   284  LEU284      0.0019
     95  CD1      -25.8820  -33.2430  -12.7530 C.3   284  LEU284      0.0001
     96  CD2      -24.9860  -30.9080  -13.2360 C.3   284  LEU284      0.0001
     97  N        -21.1090  -34.9600  -11.4680 N.am  285  SER285     -0.1952
     98  CA       -19.7910  -35.5600  -11.6050 C.3   285  SER285      0.1924
     99  C        -19.6150  -36.7590  -10.7050 C.2   285  SER285      0.2314
    100  O        -20.4810  -37.0680   -9.8890 O.2   285  SER285     -0.2863
    101  CB       -18.7010  -34.5430  -11.2970 C.3   285  SER285      0.2116
    102  OG       -18.5040  -33.6810  -12.4000 O.3   285  SER285     -0.2180
    103  N        -26.3900  -35.0650   -7.6530 N.3   298  LEU298     -0.1245
    104  CA       -27.4000  -34.0880   -8.0610 C.3   298  LEU298      0.1561
    105  C        -28.6100  -33.9760   -7.1280 C.2   298  LEU298      0.2260
    106  O        -28.8620  -34.8570   -6.3090 O.2   298  LEU298     -0.2867
    107  CB       -27.8810  -34.4150   -9.4720 C.3   298  LEU298      0.0270
    108  CG       -28.6370  -35.7290   -9.6140 C.3   298  LEU298      0.0019
    109  CD1      -30.0960  -35.5140   -9.2040 C.3   298  LEU298      0.0001
    110  CD2      -28.5440  -36.2080  -11.0590 C.3   298  LEU298      0.0001
    111  N        -21.9930  -41.2920  -23.7810 N.3   338  LEU338     -0.1231
    112  CA       -22.4670  -39.9740  -23.3390 C.3   338  LEU338      0.1693
    113  C        -22.4020  -39.6740  -21.8460 C.2   338  LEU338      0.2591
    114  O        -21.7570  -38.7170  -21.4240 O.2   338  LEU338     -0.2718
    115  CB       -23.9100  -39.7440  -23.8230 C.3   338  LEU338      0.0284
    116  CG       -24.6280  -38.4540  -23.3790 C.3   338  LEU338      0.0019
    117  CD1      -24.3550  -37.3070  -24.3400 C.3   338  LEU338      0.0001
    118  CD2      -26.1130  -38.7100  -23.3310 C.3   338  LEU338      0.0001
    119  N        -23.0770  -40.4790  -21.0430 N.am  339  ILE339     -0.1980
    120  CA       -23.0810  -40.2300  -19.6200 C.3   339  ILE339      0.1595
    121  C        -21.6800  -40.2380  -19.0330 C.2   339  ILE339      0.2287
    122  O        -21.2820  -39.2610  -18.3950 O.2   339  ILE339     -0.2864
    123  CB       -23.9690  -41.2300  -18.8930 C.3   339  ILE339      0.0276
    124  CG1      -25.4020  -41.1120  -19.4330 C.3   339  ILE339      0.0022
    125  CG2      -23.8770  -40.9890  -17.4020 C.3   339  ILE339      0.0022
    126  CD1      -26.4330  -41.9000  -18.6880 C.3   339  ILE339      0.0001
    127  N        -19.7980  -37.2030  -19.8850 N.3   342  LEU342     -0.1231
    128  CA       -20.3220  -36.0480  -19.1690 C.3   342  LEU342      0.1693
    129  C        -20.0890  -36.1020  -17.6480 C.2   342  LEU342      0.2591
    130  O        -19.9780  -35.0690  -16.9960 O.2   342  LEU342     -0.2718
    131  CB       -21.8120  -35.8850  -19.4850 C.3   342  LEU342      0.0284
    132  CG       -22.1430  -35.2090  -20.8230 C.3   342  LEU342      0.0019
    133  CD1      -22.9620  -36.1400  -21.6770 C.3   342  LEU342      0.0001
    134  CD2      -22.9120  -33.9280  -20.6060 C.3   342  LEU342      0.0001
    135  N        -19.9950  -37.2970  -17.0800 N.am  343  MET343     -0.1979
    136  CA       -19.7530  -37.4260  -15.6450 C.3   343  MET343      0.1605
    137  C        -18.2700  -37.4460  -15.2910 C.2   343  MET343      0.2287
    138  O        -17.9170  -37.5400  -14.1170 O.2   343  MET343     -0.2864
    139  CB       -20.3820  -38.7020  -15.1130 C.3   343  MET343      0.0413
    140  CG       -21.8420  -38.8170  -15.3970 C.3   343  MET343      0.0598
    141  SD       -22.6980  -39.4100  -13.9480 S.3   343  MET343     -0.1393
    142  CE       -22.8980  -37.8090  -13.0540 C.3   343  MET343      0.0692
    143  N        -24.7520  -43.7560   -8.1380 N.3   367  LEU367     -0.1245
    144  CA       -25.5350  -44.0510   -9.3380 C.3   367  LEU367      0.1561
    145  C        -26.1940  -45.4160   -9.2980 C.2   367  LEU367      0.2260
    146  O        -27.3440  -45.5720   -9.7240 O.2   367  LEU367     -0.2867
    147  CB       -24.6610  -43.9850  -10.5940 C.3   367  LEU367      0.0270
    148  CG       -23.8590  -42.7190  -10.8680 C.3   367  LEU367      0.0019
    149  CD1      -23.2530  -42.8180  -12.2620 C.3   367  LEU367      0.0001
    150  CD2      -24.7580  -41.5050  -10.7550 C.3   367  LEU367      0.0001
    151  N        -29.3800  -48.7370  -13.7690 N.3   404  MET404     -0.1230
    152  CA       -30.0040  -47.4310  -13.7990 C.3   404  MET404      0.1702
    153  C        -31.2680  -47.3190  -14.6460 C.2   404  MET404      0.2592
    154  O        -32.2140  -46.6090  -14.2800 O.2   404  MET404     -0.2718
    155  CB       -28.9890  -46.3870  -14.2560 C.3   404  MET404      0.0401
    156  CG       -27.8660  -46.1530  -13.2630 C.3   404  MET404      0.0596
    157  SD       -26.8750  -44.7090  -13.6730 S.3   404  MET404     -0.1393
    158  CE       -25.8720  -45.3920  -14.8980 C.3   404  MET404      0.0692
    159  N        -31.3030  -48.0110  -15.7770 N.am  405  PHE405     -0.1976
    160  CA       -32.4720  -47.9120  -16.6340 C.3   405  PHE405      0.1639
    161  C        -33.1480  -49.2280  -16.9460 C.2   405  PHE405      0.2290
    162  O        -34.3210  -49.4020  -16.6450 O.2   405  PHE405     -0.2864
    163  CB       -32.0840  -47.2120  -17.9260 C.3   405  PHE405      0.0560
    164  CG       -31.2630  -45.9860  -17.7090 C.ar  405  PHE405     -0.0200
    165  CD1      -29.8720  -46.0580  -17.6920 C.ar  405  PHE405     -0.0042
    166  CD2      -31.8740  -44.7570  -17.4890 C.ar  405  PHE405     -0.0042
    167  CE1      -29.1040  -44.9200  -17.4620 C.ar  405  PHE405     -0.0003
    168  CE2      -31.1100  -43.6230  -17.2580 C.ar  405  PHE405     -0.0003
    169  CZ       -29.7270  -43.7060  -17.2450 C.ar  405  PHE405     -0.0000
    170  N        -27.0170  -43.5020  -24.7060 N.3   447  HIS447     -0.1241
    171  CA       -28.0570  -42.7740  -24.0040 C.3   447  HIS447      0.1621
    172  C        -28.5750  -41.5900  -24.8180 C.2   447  HIS447      0.2264
    173  O        -27.8270  -40.6750  -25.1590 O.2   447  HIS447     -0.2867
    174  CB       -27.5490  -42.2520  -22.6620 C.3   447  HIS447      0.0745
    175  CG       -28.5890  -41.5180  -21.8790 C.ar  447  HIS447      0.0817
    176  ND1      -29.6210  -42.1600  -21.2300 N.ar  447  HIS447     -0.2268
    177  CD2      -28.7720  -40.1960  -21.6600 C.ar  447  HIS447      0.1154
    178  CE1      -30.3930  -41.2650  -20.6390 C.ar  447  HIS447      0.1986
    179  NE2      -29.8990  -40.0660  -20.8860 N.ar  447  HIS447     -0.2212
@<TRIPOS>BOND
     1    25    24    2
     2    24    23    1
     3    23    22    1
     4    23    26    1
     5    26    27    1
     6    28    27   ar
     7    28    30   ar
     8    27    29   ar
     9    17    16    2
    10     9     8    2
    11    30    32   ar
    12   173   172    2
    13    12    11    1
    14    29    31   ar
    15   172   171    1
    16   170   171    1
    17    16    15    1
    18     8     7    1
    19     8    14   am
    20    32    31   ar
    21   117   116    1
    22     7     6    1
    23     7    10    1
    24   171   174    1
    25   115   116    1
    26   115   112    1
    27   111   112    1
    28    11    10    1
    29    11    13    1
    30    15    14    1
    31    15    18    1
    32    57    56    1
    33    57    58    1
    34    60    58   ar
    35   116   118    1
    36   112   113    1
    37    56    53    1
    38    58    59   ar
    39   174   175    1
    40    20    19    1
    41    19    18    1
    42    19    21    1
    43    52    53    1
    44    53    54    1
    45   175   177   ar
    46   175   176   ar
    47   113   114    2
    48   113   119   am
    49   133   132    1
    50   177   179   ar
    51   176   178   ar
    52   119   120    1
    53   179   178   ar
    54     4     3    2
    55   132   134    1
    56   132   131    1
    57    54    55    2
    58    54    61   am
    59    33    34    1
    60    61    62    1
    61     3     2    1
    62   127   128    1
    63    36    35    2
    64   120   121    1
    65   120   123    1
    66    34    35    1
    67   131   128    1
    68   124   123    1
    69   124   126    1
    70     2     1    1
    71     2     5    1
    72    35    37   am
    73    65    62    1
    74    65    66    1
    75   128   129    1
    76   121   122    2
    77    62    63    1
    78   123   125    1
    79    37    38    1
    80    51    49    1
    81    38    39    1
    82   163   164    1
    83   163   160    1
    84    63    64    2
    85    47    48    2
    86    47    46    1
    87   164   165   ar
    88   164   166   ar
    89   165   167   ar
    90   129   135   am
    91   129   130    2
    92   166   168   ar
    93   167   169   ar
    94    49    46    1
    95    49    50    1
    96   168   169   ar
    97   135   136    1
    98   161   162    2
    99   161   160    1
   100    46    45    1
   101   160   159    1
   102    39    41   am
   103    39    40    2
   104    41    42    1
   105   159   153   am
   106   136   137    1
   107   136   139    1
   108   140   139    1
   109   140   141    1
   110   137   138    2
   111   158   157    1
   112    42    43    1
   113   153   154    2
   114   153   152    1
   115   155   152    1
   116   155   156    1
   117   141   142    1
   118   152   151    1
   119    43    44    2
   120    72    71    1
   121    92    91    2
   122   157   156    1
   123    94    93    1
   124    94    96    1
   125    94    95    1
   126    93    90    1
   127    87    86    1
   128    73    71    1
   129    91    90    1
   130    91    97   am
   131    71    68    1
   132   102   101    1
   133    90    89    1
   134   149   148    1
   135    86    88    1
   136    86    85    1
   137    98    97    1
   138    98   101    1
   139    98    99    1
   140    68    67    1
   141    68    69    1
   142   110   108    1
   143    79    78    1
   144   148   150    1
   145   148   147    1
   146    85    82    1
   147    99   100    2
   148   147   144    1
   149    69    70    2
   150   146   145    2
   151   108   107    1
   152   108   109    1
   153    82    81    1
   154    82    83    1
   155   107   104    1
   156    78    80    1
   157    78    75    1
   158    81    76   am
   159   144   145    1
   160   144   143    1
   161    74    75    1
   162    76    75    1
   163    76    77    2
   164    83    84    2
   165   104   103    1
   166   104   105    1
   167   105   106    2
