@<TRIPOS>MOLECULE
tmp/1mx9F00.pdb
 173 162 0 0 0
SMALL
GASTEIGER

@<TRIPOS>ATOM
      1  N        -25.5850  -12.2900   27.9590 N.3    72  ALA72      -0.1245
      2  CA       -26.5970  -11.9760   28.9580 C.3    72  ALA72       0.1562
      3  C        -27.5460  -13.1490   29.0590 C.2    72  ALA72       0.2260
      4  O        -27.8420  -13.6310   30.1440 O.2    72  ALA72      -0.2867
      5  CB       -27.3670  -10.7350   28.5630 C.3    72  ALA72       0.0290
      6  N        -27.9450  -15.3250   32.7070 N.3    76  LEU76      -0.1245
      7  CA       -29.2710  -15.3600   33.2840 C.3    76  LEU76       0.1561
      8  C        -29.8470  -16.7650   33.2980 C.2    76  LEU76       0.2260
      9  O        -30.4370  -17.1990   34.2870 O.2    76  LEU76      -0.2867
     10  CB       -30.1910  -14.4550   32.4890 C.3    76  LEU76       0.0270
     11  CG       -31.6680  -14.6460   32.8020 C.3    76  LEU76       0.0019
     12  CD1      -31.8660  -14.5760   34.3160 C.3    76  LEU76       0.0001
     13  CD2      -32.4970  -13.6030   32.0480 C.3    76  LEU76       0.0001
     14  N        -31.2020  -18.8740   36.7630 N.3    80  PHE80      -0.1241
     15  CA       -32.5530  -19.3840   37.0180 C.3    80  PHE80       0.1605
     16  C        -32.8510  -20.8220   36.6260 C.2    80  PHE80       0.2264
     17  O        -33.8470  -21.3750   37.0890 O.2    80  PHE80      -0.2867
     18  CB       -33.6150  -18.5140   36.3460 C.3    80  PHE80       0.0534
     19  CG       -33.6580  -17.1030   36.8410 C.ar   80  PHE80      -0.0203
     20  CD1      -33.3510  -16.8010   38.1660 C.ar   80  PHE80      -0.0042
     21  CD2      -34.0530  -16.0680   35.9920 C.ar   80  PHE80      -0.0042
     22  CE1      -33.4390  -15.4820   38.6380 C.ar   80  PHE80      -0.0003
     23  CE2      -34.1450  -14.7450   36.4580 C.ar   80  PHE80      -0.0003
     24  CZ       -33.8370  -14.4560   37.7810 C.ar   80  PHE80      -0.0000
     25  N        -36.8290  -11.7810   32.0680 N.3   121  GLY121     -0.1210
     26  CA       -35.6020  -11.4470   31.3700 C.3   121  GLY121      0.1956
     27  C        -35.5670  -10.0310   30.8200 C.2   121  GLY121      0.2612
     28  O        -34.5830   -9.6200   30.1990 O.2   121  GLY121     -0.2717
     29  N        -36.6480   -9.2910   31.0380 N.am  122  GLY122     -0.1956
     30  CA       -36.7160   -7.9090   30.5940 C.3   122  GLY122      0.1869
     31  C        -37.1970   -7.7040   29.1870 C.2   122  GLY122      0.2309
     32  O        -37.0230   -6.6220   28.6340 O.2   122  GLY122     -0.2863
     33  N        -33.8180  -10.6560   27.3470 N.3   125  VAL125     -0.1245
     34  CA       -33.1440  -11.9480   27.3430 C.3   125  VAL125      0.1561
     35  C        -34.1190  -12.9850   27.8630 C.2   125  VAL125      0.2260
     36  O        -35.2850  -12.6820   28.0920 O.2   125  VAL125     -0.2867
     37  CB       -31.8720  -11.9440   28.2200 C.3   125  VAL125      0.0252
     38  CG1      -30.8280  -11.0300   27.6140 C.3   125  VAL125      0.0019
     39  CG2      -32.2060  -11.4940   29.6160 C.3   125  VAL125      0.0019
     40  N        -42.3950  -14.7410   36.0610 N.3   199  GLU199     -0.1231
     41  CA       -41.7120  -13.8490   36.9800 C.3   199  GLU199      0.1699
     42  C        -40.9220  -12.7790   36.2230 C.2   199  GLU199      0.2593
     43  O        -40.4300  -13.0200   35.1290 O.2   199  GLU199     -0.2718
     44  CB       -40.7980  -14.6540   37.9070 C.3   199  GLU199      0.0402
     45  CG       -39.5140  -15.1450   37.2920 C.3   199  GLU199      0.1161
     46  CD       -38.3420  -14.2570   37.6640 C.2   199  GLU199      0.3649
     47  OE1      -38.2480  -13.8890   38.8620 O.co2 199  GLU199     -0.2457
     48  OE2      -37.5210  -13.9350   36.7670 O.co2 199  GLU199     -0.2457
     49  N        -40.8040  -11.5960   36.8210 N.am  200  SER200     -0.1938
     50  CA       -40.1160  -10.4660   36.2080 C.3   200  SER200      0.2055
     51  C        -40.8950  -10.1410   34.9310 C.2   200  SER200      0.2642
     52  O        -42.1280  -10.1110   34.9480 O.2   200  SER200     -0.2714
     53  CB       -38.6640  -10.8310   35.8860 C.3   200  SER200      0.2130
     54  OG       -37.8020   -9.7390   36.1370 O.3   200  SER200     -0.2179
     55  N        -40.1940   -9.9030   33.8260 N.am  201  ALA201     -0.1977
     56  CA       -40.8590   -9.6000   32.5660 C.3   201  ALA201      0.1597
     57  C        -42.0220  -10.5710   32.3210 C.2   201  ALA201      0.2287
     58  O        -43.0430  -10.2040   31.7380 O.2   201  ALA201     -0.2864
     59  CB       -39.8560   -9.6870   31.4250 C.3   201  ALA201      0.0319
     60  N        -44.9200   -2.0120   37.1480 N.3   231  THR231     -0.1218
     61  CA       -43.4780   -1.9460   37.3680 C.3   231  THR231      0.1862
     62  C        -43.0260   -1.0130   36.2370 C.2   231  THR231      0.2287
     63  O        -42.5340   -1.4550   35.2010 O.2   231  THR231     -0.2866
     64  CB       -42.8000   -3.3400   37.1940 C.3   231  THR231      0.1770
     65  OG1      -43.4940   -4.3220   37.9680 O.3   231  THR231     -0.2211
     66  CG2      -41.3480   -3.2900   37.6580 C.3   231  THR231      0.0375
     67  N        -40.6520    0.4680   34.9720 N.3   233  VAL233     -0.1231
     68  CA       -39.5090    0.2170   34.1040 C.3   233  VAL233      0.1692
     69  C        -39.7730   -0.5560   32.8190 C.2   233  VAL233      0.2591
     70  O        -39.1620   -0.2730   31.7840 O.2   233  VAL233     -0.2718
     71  CB       -38.3860   -0.5060   34.8460 C.3   233  VAL233      0.0266
     72  CG1      -38.8860   -1.8340   35.4030 C.3   233  VAL233      0.0020
     73  CG2      -37.2270   -0.7210   33.8970 C.3   233  VAL233      0.0020
     74  N        -40.6710   -1.5330   32.8890 N.am  234  LEU234     -0.1980
     75  CA       -40.9970   -2.3650   31.7340 C.3   234  LEU234      0.1596
     76  C        -42.0470   -1.7630   30.8210 C.2   234  LEU234      0.2287
     77  O        -42.1730   -2.1760   29.6740 O.2   234  LEU234     -0.2864
     78  CB       -41.4690   -3.7510   32.1870 C.3   234  LEU234      0.0297
     79  CG       -40.4650   -4.6660   32.8930 C.3   234  LEU234      0.0022
     80  CD1      -41.1690   -5.9180   33.3700 C.3   234  LEU234      0.0001
     81  CD2      -39.3400   -5.0240   31.9540 C.3   234  LEU234      0.0001
     82  N        -30.2960   -3.1150   29.6230 N.3   283  LEU283     -0.1245
     83  CA       -30.0880   -3.9000   30.8370 C.3   283  LEU283      0.1561
     84  C        -28.8440   -3.4910   31.5840 C.2   283  LEU283      0.2260
     85  O        -28.1530   -4.3420   32.1210 O.2   283  LEU283     -0.2867
     86  CB       -29.9540   -5.3880   30.5230 C.3   283  LEU283      0.0270
     87  CG       -31.0760   -6.1220   29.8010 C.3   283  LEU283      0.0019
     88  CD1      -30.9460   -7.6170   30.0970 C.3   283  LEU283      0.0001
     89  CD2      -32.4330   -5.6000   30.2670 C.3   283  LEU283      0.0001
     90  N        -33.0630    1.7950   29.7940 N.3   296  PRO296     -0.2102
     91  CA       -32.5260    0.4450   30.0050 C.3   296  PRO296      0.1504
     92  C        -33.1150   -0.6770   29.1560 C.2   296  PRO296      0.2575
     93  O        -32.4510   -1.6860   28.9160 O.2   296  PRO296     -0.2718
     94  CB       -32.7550    0.2130   31.4960 C.3   296  PRO296      0.0282
     95  CG       -34.0360    0.9190   31.7210 C.3   296  PRO296      0.0208
     96  CD       -33.8280    2.2280   30.9760 C.3   296  PRO296      0.0893
     97  N        -34.3540   -0.5250   28.7090 N.am  297  LEU297     -0.1980
     98  CA       -34.9420   -1.5700   27.8940 C.3   297  LEU297      0.1596
     99  C        -36.1880   -1.1740   27.1150 C.2   297  LEU297      0.2287
    100  O        -36.8890   -0.2110   27.4430 O.2   297  LEU297     -0.2864
    101  CB       -35.2210   -2.8090   28.7560 C.3   297  LEU297      0.0297
    102  CG       -35.8740   -2.6450   30.1340 C.3   297  LEU297      0.0022
    103  CD1      -37.3230   -2.1770   29.9980 C.3   297  LEU297      0.0001
    104  CD2      -35.8190   -3.9750   30.8570 C.3   297  LEU297      0.0001
    105  N        -29.0440  -10.0460   42.5620 N.3   337  LEU337     -0.1231
    106  CA       -29.2060  -10.4020   41.1570 C.3   337  LEU337      0.1693
    107  C        -29.2640   -9.1990   40.2110 C.2   337  LEU337      0.2591
    108  O        -28.3250   -8.9300   39.4540 O.2   337  LEU337     -0.2718
    109  CB       -30.4740  -11.2290   40.9870 C.3   337  LEU337      0.0284
    110  CG       -30.7720  -11.6290   39.5510 C.3   337  LEU337      0.0019
    111  CD1      -29.8200  -12.7040   39.1400 C.3   337  LEU337      0.0001
    112  CD2      -32.1860  -12.1270   39.4390 C.3   337  LEU337      0.0001
    113  N        -30.3850   -8.4890   40.2550 N.am  338  ILE338     -0.1980
    114  CA       -30.5990   -7.3250   39.4140 C.3   338  ILE338      0.1595
    115  C        -29.4190   -6.3530   39.4210 C.2   338  ILE338      0.2287
    116  O        -28.8650   -6.0360   38.3740 O.2   338  ILE338     -0.2864
    117  CB       -31.8900   -6.5790   39.8370 C.3   338  ILE338      0.0276
    118  CG1      -33.0720   -7.5690   39.8430 C.3   338  ILE338      0.0022
    119  CG2      -32.0930   -5.3510   38.9540 C.3   338  ILE338      0.0022
    120  CD1      -34.4800   -6.9450   39.9430 C.3   338  ILE338      0.0001
    121  N        -26.4640   -7.7020   37.8090 N.3   341  LEU341     -0.1231
    122  CA       -26.6880   -7.8440   36.3760 C.3   341  LEU341      0.1693
    123  C        -26.9690   -6.5180   35.6740 C.2   341  LEU341      0.2591
    124  O        -27.3190   -6.5080   34.5000 O.2   341  LEU341     -0.2718
    125  CB       -27.8450   -8.8090   36.1140 C.3   341  LEU341      0.0284
    126  CG       -27.5710  -10.3150   36.0910 C.3   341  LEU341      0.0019
    127  CD1      -28.7830  -11.0820   36.5880 C.3   341  LEU341      0.0001
    128  CD2      -27.2160  -10.7460   34.6820 C.3   341  LEU341      0.0001
    129  N        -26.8200   -5.4060   36.3860 N.am  342  MET342     -0.1979
    130  CA       -27.0620   -4.0980   35.7990 C.3   342  MET342      0.1605
    131  C        -25.8950   -3.1720   36.0680 C.2   342  MET342      0.2287
    132  O        -25.9940   -1.9650   35.8680 O.2   342  MET342     -0.2864
    133  CB       -28.3420   -3.4850   36.3570 C.3   342  MET342      0.0413
    134  CG       -29.6180   -4.1990   35.9370 C.3   342  MET342      0.0598
    135  SD       -31.0250   -3.0680   35.8550 S.3   342  MET342     -0.1393
    136  CE       -30.5770   -2.1350   34.3830 C.3   342  MET342      0.0692
    137  N        -35.1960    3.2260   36.4700 N.3   366  LEU366     -0.1245
    138  CA       -35.7470    2.0760   37.1810 C.3   366  LEU366      0.1561
    139  C        -36.8820    2.4870   38.1050 C.2   366  LEU366      0.2260
    140  O        -37.9620    1.9040   38.0760 O.2   366  LEU366     -0.2867
    141  CB       -34.6750    1.3990   38.0410 C.3   366  LEU366      0.0270
    142  CG       -33.3070    0.9580   37.5090 C.3   366  LEU366      0.0019
    143  CD1      -32.3800    0.8300   38.7110 C.3   366  LEU366      0.0001
    144  CD2      -33.3860   -0.3550   36.7310 C.3   366  LEU366      0.0001
    145  N        -40.0300   -0.4210   42.5050 N.3   403  MET403     -0.1230
    146  CA       -40.0550   -1.3060   41.3490 C.3   403  MET403      0.1702
    147  C        -41.0840   -2.4290   41.3980 C.2   403  MET403      0.2592
    148  O        -41.8310   -2.6240   40.4400 O.2   403  MET403     -0.2718
    149  CB       -38.6750   -1.9380   41.1350 C.3   403  MET403      0.0401
    150  CG       -37.6570   -1.0720   40.4230 C.3   403  MET403      0.0596
    151  SD       -36.0620   -1.9410   40.2250 S.3   403  MET403     -0.1393
    152  CE       -36.1700   -2.6340   38.6010 C.3   403  MET403      0.0692
    153  N        -41.1170   -3.1720   42.5030 N.am  404  PHE404     -0.1976
    154  CA       -42.0270   -4.3100   42.6100 C.3   404  PHE404      0.1639
    155  C        -43.0670   -4.2500   43.7100 C.2   404  PHE404      0.2290
    156  O        -44.2720   -4.2940   43.4450 O.2   404  PHE404     -0.2864
    157  CB       -41.2240   -5.6010   42.7800 C.3   404  PHE404      0.0560
    158  CG       -40.1560   -5.7880   41.7480 C.ar  404  PHE404     -0.0200
    159  CD1      -38.9200   -5.1590   41.8860 C.ar  404  PHE404     -0.0042
    160  CD2      -40.3820   -6.5880   40.6310 C.ar  404  PHE404     -0.0042
    161  CE1      -37.9170   -5.3270   40.9220 C.ar  404  PHE404     -0.0003
    162  CE2      -39.3850   -6.7620   39.6610 C.ar  404  PHE404     -0.0003
    163  CZ       -38.1520   -6.1300   39.8090 C.ar  404  PHE404     -0.0000
    164  N        -34.2620  -11.8470   44.0530 N.3   446  HIS446     -0.1241
    165  CA       -35.0610  -11.9580   42.8440 C.3   446  HIS446      0.1621
    166  C        -34.9050  -13.3330   42.2180 C.2   446  HIS446      0.2264
    167  O        -33.7960  -13.8260   42.0470 O.2   446  HIS446     -0.2867
    168  CB       -34.6100  -10.8950   41.8470 C.3   446  HIS446      0.0745
    169  CG       -35.6080  -10.5990   40.7710 C.ar  446  HIS446      0.0817
    170  ND1      -36.8560  -10.0750   41.0360 N.ar  446  HIS446     -0.2268
    171  CD2      -35.5300  -10.7200   39.4240 C.ar  446  HIS446      0.1154
    172  CE1      -37.5020   -9.8840   39.8990 C.ar  446  HIS446      0.1986
    173  NE2      -36.7190  -10.2680   38.9060 N.ar  446  HIS446     -0.2212
@<TRIPOS>BOND
     1    99   100    2
     2    99    98    1
     3    34    33    1
     4    34    35    1
     5    34    37    1
     6    38    37    1
     7    35    36    2
     8    98    97    1
     9    98   101    1
    10     1     2    1
    11    37    39    1
    12     5     2    1
    13    32    31    2
    14    97    92   am
    15   101   102    1
    16    93    92    2
    17     2     3    1
    18     3     4    2
    19    92    91    1
    20    31    30    1
    21    82    83    1
    22    77    76    2
    23    90    91    1
    24    90    96    1
    25    87    88    1
    26    87    89    1
    27    87    86    1
    28   103   102    1
    29    91    94    1
    30   102   104    1
    31    28    27    2
    32    86    83    1
    33    30    29    1
    34    27    29   am
    35    27    26    1
    36    76    75    1
    37    83    84    1
    38    96    95    1
    39    26    25    1
    40    59    56    1
    41    94    95    1
    42    84    85    2
    43    75    78    1
    44    75    74    1
    45    58    57    2
    46    70    69    2
    47    81    79    1
    48    13    11    1
    49    78    79    1
    50    57    56    1
    51    10    11    1
    52    10     7    1
    53    56    55    1
    54     6     7    1
    55    11    12    1
    56    69    74   am
    57    69    68    1
    58    79    80    1
    59     7     8    1
    60     8     9    2
    61    55    51   am
    62    73    71    1
    63    68    71    1
    64    68    67    1
    65   136   135    1
    66   124   123    2
    67   128   126    1
    68    71    72    1
    69    51    52    2
    70    51    50    1
    71    43    42    2
    72    63    62    2
    73   123   122    1
    74   123   129   am
    75   130   131    1
    76   130   133    1
    77   130   129    1
    78   135   134    1
    79   132   131    2
    80    53    54    1
    81    53    50    1
    82   134   133    1
    83    21    23   ar
    84    21    19   ar
    85    40    41    1
    86   126   125    1
    87   126   127    1
    88   125   122    1
    89    50    49    1
    90    42    49   am
    91    42    41    1
    92    62    61    1
    93    18    19    1
    94    18    15    1
    95   122   121    1
    96    23    24   ar
    97   137   138    1
    98    16    15    1
    99    16    17    2
   100   144   142    1
   101    14    15    1
   102    48    46   ar
   103    19    20   ar
   104    41    44    1
   105    60    61    1
   106   138   141    1
   107   138   139    1
   108    64    61    1
   109    64    66    1
   110    64    65    1
   111    45    46    1
   112    45    44    1
   113   142   141    1
   114   142   143    1
   115    46    47   ar
   116    24    22   ar
   117   140   139    2
   118    20    22   ar
   119   116   115    2
   120   152   151    1
   121   173   171   ar
   122   173   172   ar
   123   119   117    1
   124   111   110    1
   125   114   115    1
   126   114   117    1
   127   114   113    1
   128   171   169   ar
   129   112   110    1
   130   108   107    2
   131   110   109    1
   132   162   163   ar
   133   162   160   ar
   134   163   161   ar
   135   117   118    1
   136   118   120    1
   137   172   170   ar
   138   107   113   am
   139   107   106    1
   140   151   150    1
   141   150   149    1
   142   148   147    2
   143   160   158   ar
   144   169   170   ar
   145   169   168    1
   146   161   159   ar
   147   109   106    1
   148   149   146    1
   149   106   105    1
   150   146   147    1
   151   146   145    1
   152   147   153   am
   153   158   159   ar
   154   158   157    1
   155   168   165    1
   156   167   166    2
   157   166   165    1
   158   153   154    1
   159   154   157    1
   160   154   155    1
   161   165   164    1
   162   156   155    2
