@<TRIPOS>MOLECULE
tmp/1mxcA00.pdb
 95 86 0 0 0
SMALL
GASTEIGER

@<TRIPOS>ATOM
      1  N        -19.8900   46.6260    3.5060 N.3    38  ARG38      -0.1231
      2  CA       -19.2540   46.1640    4.7110 C.3    38  ARG38       0.1694
      3  C        -20.2350   46.4920    5.8000 C.2    38  ARG38       0.2592
      4  O        -20.5500   47.6750    5.9340 O.2    38  ARG38      -0.2718
      5  CB       -17.9030   46.8430    4.9600 C.3    38  ARG38       0.0321
      6  CG       -16.8460   46.5640    3.8900 C.3    38  ARG38       0.0489
      7  CD       -16.5100   45.0800    3.8640 C.3    38  ARG38       0.2205
      8  NE       -15.9230   44.5880    2.6170 N.pl3  38  ARG38      -0.0865
      9  CZ       -16.5450   43.6680    1.8380 C.cat  38  ARG38       0.5346
     10  NH1      -17.7870   43.2160    2.1160 N.pl3  38  ARG38       0.1354
     11  NH2      -15.8810   43.1760    0.7770 N.pl3  38  ARG38       0.1354
     12  N        -20.7740   45.5370    6.5650 N.am   39  VAL39      -0.1966
     13  CA       -21.6200   45.8990    7.7000 C.3    39  VAL39       0.1727
     14  C        -21.0960   45.3070    9.0080 C.2    39  VAL39       0.2616
     15  O        -20.3550   44.3100    8.9980 O.2    39  VAL39      -0.2715
     16  CB       -23.1490   45.6180    7.5150 C.3    39  VAL39       0.0290
     17  CG1      -23.6070   45.7590    6.0840 C.3    39  VAL39       0.0023
     18  CG2      -23.6250   44.3030    8.0570 C.3    39  VAL39       0.0023
     19  N        -21.4140   45.9690   10.1210 N.am   40  ALA40      -0.1977
     20  CA       -21.1660   45.4900   11.4750 C.3    40  ALA40       0.1597
     21  C        -22.3330   46.0260   12.2870 C.2    40  ALA40       0.2287
     22  O        -22.2390   47.0740   12.9150 O.2    40  ALA40      -0.2864
     23  CB       -19.8790   46.1180   12.0220 C.3    40  ALA40       0.0319
     24  N        -25.0100   45.6990   15.2810 N.3    42  GLU42      -0.1245
     25  CA       -25.2830   45.1360   16.5930 C.3    42  GLU42       0.1567
     26  C        -26.6460   45.5680   17.1320 C.2    42  GLU42       0.2260
     27  O        -27.0030   46.7380   17.0670 O.2    42  GLU42      -0.2867
     28  CB       -24.2060   45.6100   17.5390 C.3    42  GLU42       0.0388
     29  CG       -22.7870   45.3540   17.0410 C.3    42  GLU42       0.1160
     30  CD       -22.2280   43.9640   17.2090 C.2    42  GLU42       0.3649
     31  OE1      -22.9740   43.0210   17.4020 O.co2  42  GLU42      -0.2457
     32  OE2      -21.0210   43.7330   17.1140 O.co2  42  GLU42      -0.2457
     33  N        -21.9780   50.0480   12.4310 N.3    55  GLU55      -0.1245
     34  CA       -21.2790   50.7620   11.3850 C.3    55  GLU55       0.1567
     35  C        -21.4820   50.0520   10.0310 C.2    55  GLU55       0.2260
     36  O        -21.3790   48.8150    9.9190 O.2    55  GLU55      -0.2867
     37  CB       -19.8200   50.9070   11.7990 C.3    55  GLU55       0.0388
     38  CG       -19.5350   51.7930   13.0210 C.3    55  GLU55       0.1160
     39  CD       -19.8520   53.2870   12.9240 C.2    55  GLU55       0.3649
     40  OE1      -20.1690   53.8010   11.8600 O.co2  55  GLU55      -0.2457
     41  OE2      -19.8410   53.9630   13.9570 O.co2  55  GLU55      -0.2457
     42  N        -20.7520   50.5110    5.7640 N.3    57  THR57      -0.1218
     43  CA       -20.2920   51.2720    4.6340 C.3    57  THR57       0.1862
     44  C        -20.8540   50.6650    3.3600 C.2    57  THR57       0.2287
     45  O        -20.5360   49.5390    2.9640 O.2    57  THR57      -0.2866
     46  CB       -18.7660   51.5470    4.6940 C.3    57  THR57       0.1770
     47  OG1      -18.4590   52.3320    3.5500 O.3    57  THR57      -0.2211
     48  CG2      -17.8410   50.3630    4.8360 C.3    57  THR57       0.0375
     49  N        -21.1230   55.0910    6.0800 N.3    98  GLN98      -0.1245
     50  CA       -20.1200   55.6770    5.2260 C.3    98  GLN98       0.1566
     51  C        -20.5260   55.1290    3.8680 C.2    98  GLN98       0.2260
     52  O        -21.0550   54.0160    3.7310 O.2    98  GLN98      -0.2867
     53  CB       -18.6920   55.2140    5.5410 C.3    98  GLN98       0.0367
     54  CG       -18.1990   55.3080    6.9820 C.3    98  GLN98       0.0905
     55  CD       -18.7570   54.2380    7.9230 C.2    98  GLN98       0.2608
     56  OE1      -18.7450   53.0460    7.6090 O.2    98  GLN98      -0.2717
     57  NE2      -19.2530   54.6010    9.0990 N.am   98  GLN98      -0.0878
     58  N         -8.9190   41.7850    7.8800 N.3   112  GLY112     -0.1210
     59  CA        -9.3970   42.8860    8.6980 C.3   112  GLY112      0.1956
     60  C         -9.8570   42.3520   10.0440 C.2   112  GLY112      0.2611
     61  O        -10.9060   41.7150   10.1670 O.2   112  GLY112     -0.2717
     62  N         -9.0280   42.7110   11.0110 N.am  113  ASP113     -0.1973
     63  CA        -9.0040   42.1980   12.3820 C.3   113  ASP113      0.1709
     64  C         -8.3460   40.8260   12.4430 C.2   113  ASP113      0.2293
     65  O         -8.1840   40.0940   11.4730 O.2   113  ASP113     -0.2864
     66  CB       -10.3020   42.3050   13.2740 C.3   113  ASP113      0.1436
     67  CG       -10.0800   42.2870   14.8020 C.2   113  ASP113      0.3671
     68  OD1       -8.9920   42.6290   15.2790 O.co2 113  ASP113     -0.2456
     69  OD2      -10.9580   41.9060   15.6000 O.co2 113  ASP113     -0.2456
     70  N        -22.3480   40.6020   10.8070 N.3   260  LYS260     -0.1245
     71  CA       -21.0780   40.7790   10.1530 C.3   260  LYS260      0.1561
     72  C        -21.2260   40.2550    8.7360 C.2   260  LYS260      0.2260
     73  O        -21.7180   39.1420    8.4630 O.2   260  LYS260     -0.2867
     74  CB       -20.0170   40.0270   10.9190 C.3   260  LYS260      0.0271
     75  CG       -19.8460   40.5750   12.3230 C.3   260  LYS260      0.0035
     76  CD       -18.8090   39.7330   13.0120 C.3   260  LYS260      0.0206
     77  CE       -18.5660   40.2130   14.4350 C.3   260  LYS260      0.1093
     78  NZ       -17.8020   39.2330   15.1830 N.3   260  LYS260     -0.1314
     79  N        -15.5370   39.8660    7.3880 N.3   264  LYS264     -0.1245
     80  CA       -15.2100   39.5670    8.7670 C.3   264  LYS264      0.1561
     81  C        -14.7820   38.1250    8.9580 C.2   264  LYS264      0.2260
     82  O        -15.6200   37.2120    8.9120 O.2   264  LYS264     -0.2867
     83  CB       -16.3850   39.8360    9.7080 C.3   264  LYS264      0.0271
     84  CG       -16.5050   41.2600   10.1950 C.3   264  LYS264      0.0035
     85  CD       -17.1110   42.0840    9.1040 C.3   264  LYS264      0.0206
     86  CE       -16.9760   43.5200    9.4820 C.3   264  LYS264      0.1093
     87  NZ       -17.6650   44.3010    8.4910 N.3   264  LYS264     -0.1314
     88  N        -14.1870   36.5490   11.5960 N.3   266  ASP266     -0.1239
     89  CA       -14.9250   35.9430   12.7220 C.3   266  ASP266      0.1674
     90  C        -16.0090   35.0160   12.1690 C.2   266  ASP266      0.2266
     91  O        -16.1560   33.8620   12.5780 O.2   266  ASP266     -0.2867
     92  CB       -15.6090   36.9350   13.7050 C.3   266  ASP266      0.1410
     93  CG       -14.8310   37.8350   14.6830 C.2   266  ASP266      0.3668
     94  OD1      -14.0780   37.4520   15.5720 O.co2 266  ASP266     -0.2456
     95  OD2      -15.0480   39.0540   14.7520 O.co2 266  ASP266     -0.2456
@<TRIPOS>BOND
     1    11     9    1
     2     9    10    1
     3     9     8    2
     4     8     7    1
     5    45    44    2
     6    44    43    1
     7     1     2    1
     8    47    46    1
     9    52    51    2
    10     7     6    1
    11    51    50    1
    12     6     5    1
    13    43    46    1
    14    43    42    1
    15    46    48    1
    16     2     5    1
    17     2     3    1
    18    50    53    1
    19    50    49    1
    20    53    54    1
    21     3     4    2
    22     3    12   am
    23    17    16    1
    24    12    13    1
    25    54    55    1
    26    79    80    1
    27    16    13    1
    28    16    18    1
    29    56    55    2
    30    13    14    1
    31    58    59    1
    32    55    57   am
    33    73    72    2
    34    87    86    1
    35    59    60    1
    36    72    71    1
    37    80    81    1
    38    80    83    1
    39    82    81    2
    40    15    14    2
    41    14    19   am
    42    85    86    1
    43    85    84    1
    44    83    84    1
    45    36    35    2
    46    35    34    1
    47    60    61    2
    48    60    62   am
    49    19    20    1
    50    71    70    1
    51    71    74    1
    52    74    75    1
    53    62    63    1
    54    34    37    1
    55    34    33    1
    56    65    64    2
    57    20    23    1
    58    20    21    1
    59    88    89    1
    60    37    38    1
    61    40    39   ar
    62    90    91    2
    63    90    89    1
    64    21    22    2
    65    75    76    1
    66    63    64    1
    67    63    66    1
    68    89    92    1
    69    39    38    1
    70    39    41   ar
    71    76    77    1
    72    66    67    1
    73    92    93    1
    74    77    78    1
    75    93    95   ar
    76    93    94   ar
    77    67    68   ar
    78    67    69   ar
    79    24    25    1
    80    25    26    1
    81    25    28    1
    82    29    30    1
    83    29    28    1
    84    27    26    2
    85    32    30   ar
    86    30    31   ar
