@<TRIPOS>MOLECULE
tmp/1mxdA01.pdb
 90 85 0 0 0
SMALL
GASTEIGER

@<TRIPOS>ATOM
      1  N         30.7270   11.3760   59.6360 N.3   118  GLU118     -0.1245
      2  CA        29.7010   11.4970   60.6620 C.3   118  GLU118      0.1567
      3  C         29.0900   10.1370   61.0110 C.2   118  GLU118      0.2260
      4  O         28.8830    9.3020   60.1310 O.2   118  GLU118     -0.2867
      5  CB        28.6320   12.4580   60.1290 C.3   118  GLU118      0.0388
      6  CG        27.2640   12.3410   60.7400 C.3   118  GLU118      0.1160
      7  CD        26.2640   13.2780   60.0830 C.2   118  GLU118      0.3649
      8  OE1       25.9440   13.0800   58.8910 O.co2 118  GLU118     -0.2457
      9  OE2       25.7980   14.2140   60.7620 O.co2 118  GLU118     -0.2457
     10  N         27.8540   14.6470   56.4890 N.3   130  ASP130     -0.1239
     11  CA        27.7750   15.9070   57.2140 C.3   130  ASP130      0.1674
     12  C         28.1140   17.0690   56.2830 C.2   130  ASP130      0.2266
     13  O         29.2770   17.2710   55.9310 O.2   130  ASP130     -0.2867
     14  CB        28.7320   15.8650   58.4140 C.3   130  ASP130      0.1410
     15  CG        28.8580   17.2060   59.1230 C.2   130  ASP130      0.3668
     16  OD1       28.0120   18.1040   58.9070 O.co2 130  ASP130     -0.2456
     17  OD2       29.8090   17.3540   59.9170 O.co2 130  ASP130     -0.2456
     18  N         27.1360   20.3370   56.9870 N.3   132  SER132     -0.1217
     19  CA        26.8260   21.5380   57.7560 C.3   132  SER132      0.1889
     20  C         27.7980   22.6920   57.5050 C.2   132  SER132      0.2288
     21  O         27.4990   23.8370   57.8270 O.2   132  SER132     -0.2866
     22  CB        26.8210   21.2130   59.2530 C.3   132  SER132      0.2089
     23  OG        28.1100   20.7930   59.6810 O.3   132  SER132     -0.2183
     24  N         22.1780   22.8730   54.0940 N.3   140  THR140     -0.1203
     25  CA        23.1230   22.0620   54.8550 C.3   140  THR140      0.1994
     26  C         22.3960   20.7240   54.9440 C.2   140  THR140      0.2618
     27  O         21.2160   20.6380   54.6030 O.2   140  THR140     -0.2717
     28  CB        23.3290   22.5940   56.2900 C.3   140  THR140      0.1784
     29  OG1       22.0560   22.7170   56.9370 O.3   140  THR140     -0.2211
     30  CG2       24.0310   23.9490   56.2740 C.3   140  THR140      0.0376
     31  N         23.0770   19.6790   55.3900 N.am  141  ALA141     -0.1965
     32  CA        22.4170   18.3860   55.5080 C.3   141  ALA141      0.1728
     33  C         23.2310   17.4150   56.3380 C.2   141  ALA141      0.2616
     34  O         24.4070   17.6560   56.6180 O.2   141  ALA141     -0.2715
     35  CB        22.1650   17.7960   54.1220 C.3   141  ALA141      0.0334
     36  N         22.5830   16.3330   56.7550 N.am  142  ASN142     -0.1972
     37  CA        23.2390   15.2790   57.5100 C.3   142  ASN142      0.1688
     38  C         22.6630   13.9540   57.0390 C.2   142  ASN142      0.2292
     39  O         21.8760   13.9180   56.0870 O.2   142  ASN142     -0.2864
     40  CB        23.0630   15.4480   59.0290 C.3   142  ASN142      0.1181
     41  CG        21.6110   15.4370   59.4750 C.2   142  ASN142      0.2629
     42  OD1       20.7580   14.7720   58.8860 O.2   142  ASN142     -0.2716
     43  ND2       21.3320   16.1640   60.5510 N.am  142  ASN142     -0.0877
     44  N         20.2900   12.2350   57.7340 N.3   144  LEU144     -0.1231
     45  CA        18.8350   12.1570   57.5760 C.3   144  LEU144      0.1693
     46  C         18.3750   12.4850   56.1570 C.2   144  LEU144      0.2592
     47  O         17.3010   12.0610   55.7220 O.2   144  LEU144     -0.2718
     48  CB        18.1440   13.1130   58.5520 C.3   144  LEU144      0.0284
     49  CG        18.2600   12.7970   60.0460 C.3   144  LEU144      0.0019
     50  CD1       17.6010   13.9060   60.8470 C.3   144  LEU144      0.0001
     51  CD2       17.6000   11.4490   60.3450 C.3   144  LEU144      0.0001
     52  N         19.1970   13.2450   55.4410 N.am  145  ASP145     -0.1974
     53  CA        18.8770   13.6640   54.0820 C.3   145  ASP145      0.1709
     54  C         19.3020   12.6770   53.0070 C.2   145  ASP145      0.2293
     55  O         19.1210   12.9300   51.8120 O.2   145  ASP145     -0.2864
     56  CB        19.5130   15.0210   53.8240 C.3   145  ASP145      0.1436
     57  CG        19.0140   16.0710   54.7830 C.2   145  ASP145      0.3671
     58  OD1       17.8300   16.4530   54.6670 O.co2 145  ASP145     -0.2456
     59  OD2       19.7940   16.4980   55.6590 O.co2 145  ASP145     -0.2456
     60  N         12.1030   13.7050   51.7580 N.3   169  LYS169     -0.1245
     61  CA        12.1890   14.5690   52.9360 C.3   169  LYS169      0.1561
     62  C         11.8460   16.0070   52.5490 C.2   169  LYS169      0.2260
     63  O         12.3580   16.5300   51.5520 O.2   169  LYS169     -0.2867
     64  CB        13.5970   14.5240   53.5450 C.3   169  LYS169      0.0271
     65  CG        14.0190   13.1580   54.0560 C.3   169  LYS169      0.0035
     66  CD        12.9640   12.5610   54.9890 C.3   169  LYS169      0.0206
     67  CE        13.4800   11.3210   55.7050 C.3   169  LYS169      0.1093
     68  NZ        14.5830   11.6760   56.6410 N.3   169  LYS169     -0.1314
     69  N         12.7090   18.7750   53.9020 N.3   171  TRP171     -0.1227
     70  CA        13.8790   19.6380   53.9740 C.3   171  TRP171      0.1737
     71  C         14.5850   19.6580   52.6210 C.2   171  TRP171      0.2595
     72  O         14.9860   20.7100   52.1300 O.2   171  TRP171     -0.2718
     73  CB        14.8370   19.1250   55.0570 C.3   171  TRP171      0.0564
     74  CG        16.1520   19.8510   55.1270 C.ar  171  TRP171      0.0003
     75  CD1       17.3100   19.5230   54.4740 C.ar  171  TRP171      0.0946
     76  CD2       16.4520   21.0160   55.9120 C.ar  171  TRP171      0.0152
     77  NE1       18.3110   20.4090   54.8090 N.ar  171  TRP171     -0.2442
     78  CE2       17.8120   21.3340   55.6870 C.ar  171  TRP171      0.0810
     79  CE3       15.7030   21.8200   56.7830 C.ar  171  TRP171      0.0012
     80  CZ2       18.4410   22.4240   56.3050 C.ar  171  TRP171      0.0191
     81  CZ3       16.3300   22.9050   57.3980 C.ar  171  TRP171      0.0001
     82  CH2       17.6850   23.1940   57.1530 C.ar  171  TRP171      0.0015
     83  N         14.7230   18.4870   52.0160 N.am  172  ASP172     -0.1974
     84  CA        15.3920   18.3820   50.7330 C.3   172  ASP172      0.1709
     85  C         14.5390   18.9250   49.5970 C.2   172  ASP172      0.2293
     86  O         15.0590   19.5030   48.6380 O.2   172  ASP172     -0.2864
     87  CB        15.7830   16.9290   50.4980 C.3   172  ASP172      0.1436
     88  CG        16.7690   16.4400   51.5380 C.2   172  ASP172      0.3671
     89  OD1       17.9880   16.5700   51.3110 O.co2 172  ASP172     -0.2456
     90  OD2       16.3220   15.9560   52.5990 O.co2 172  ASP172     -0.2456
@<TRIPOS>BOND
     1    86    85    2
     2    85    84    1
     3    87    84    1
     4    87    88    1
     5    84    83    1
     6    89    88   ar
     7    88    90   ar
     8    63    62    2
     9    60    61    1
    10    55    54    2
    11    83    71   am
    12    72    71    2
    13    62    61    1
    14    71    70    1
    15    61    64    1
    16    54    53    1
    17    64    65    1
    18    56    53    1
    19    56    57    1
    20    69    70    1
    21    70    73    1
    22    65    66    1
    23    53    52    1
    24    24    25    1
    25    35    32    1
    26    75    77   ar
    27    75    74   ar
    28    27    26    2
    29    58    57   ar
    30    57    59   ar
    31    77    78   ar
    32    25    26    1
    33    25    28    1
    34    26    31   am
    35    66    67    1
    36    73    74    1
    37    74    76   ar
    38    31    32    1
    39    52    46   am
    40    32    33    1
    41    78    76   ar
    42    78    80   ar
    43    67    68    1
    44    47    46    2
    45    76    79   ar
    46    13    12    2
    47    39    38    2
    48    46    45    1
    49    30    28    1
    50    12    11    1
    51    28    29    1
    52    80    82   ar
    53    33    34    2
    54    33    36   am
    55    10    11    1
    56    36    37    1
    57    79    81   ar
    58    18    19    1
    59    38    37    1
    60    82    81   ar
    61    11    14    1
    62    20    19    1
    63    20    21    2
    64    37    40    1
    65    45    44    1
    66    45    48    1
    67    19    22    1
    68    14    15    1
    69    48    49    1
    70    42    41    2
    71     8     7   ar
    72    16    15   ar
    73    40    41    1
    74    15    17   ar
    75    22    23    1
    76    41    43   am
    77     1     2    1
    78    49    51    1
    79    49    50    1
    80     7     6    1
    81     7     9   ar
    82     5     2    1
    83     5     6    1
    84     4     3    2
    85     2     3    1
