@<TRIPOS>MOLECULE
tmp/1mxdA00.pdb
 160 154 0 0 0
SMALL
GASTEIGER

@<TRIPOS>ATOM
      1  N         14.7310   28.8010   14.5810 N.3     4  LEU4       -0.1245
      2  CA        13.7390   28.2530   15.5020 C.3     4  LEU4        0.1561
      3  C         14.1360   28.4660   16.9550 C.2     4  LEU4        0.2260
      4  O         15.3190   28.5130   17.2850 O.2     4  LEU4       -0.2867
      5  CB        13.5460   26.7500   15.2680 C.3     4  LEU4        0.0270
      6  CG        12.8670   26.2920   13.9820 C.3     4  LEU4        0.0019
      7  CD1       12.8540   24.7700   13.9310 C.3     4  LEU4        0.0001
      8  CD2       11.4470   26.8490   13.9340 C.3     4  LEU4        0.0001
      9  N         14.0250   27.3060   21.0850 N.3     6  LEU6       -0.1231
     10  CA        14.1540   26.0460   21.8110 C.3     6  LEU6        0.1693
     11  C         12.7970   25.3560   21.9480 C.2     6  LEU6        0.2592
     12  O         12.6630   24.1710   21.6440 O.2     6  LEU6       -0.2718
     13  CB        14.7420   26.2920   23.2050 C.3     6  LEU6        0.0284
     14  CG        14.7620   25.0990   24.1680 C.3     6  LEU6        0.0019
     15  CD1       15.6360   23.9760   23.6190 C.3     6  LEU6        0.0001
     16  CD2       15.2840   25.5550   25.5160 C.3     6  LEU6        0.0001
     17  N         11.7940   26.1040   22.4050 N.am    7  GLU7       -0.1966
     18  CA        10.4530   25.5570   22.5830 C.3     7  GLU7        0.1733
     19  C          9.8150   25.1290   21.2580 C.2     7  GLU7        0.2616
     20  O          8.7860   24.4540   21.2520 O.2     7  GLU7       -0.2715
     21  CB         9.5420   26.5800   23.2670 C.3     7  GLU7        0.0429
     22  CG        10.0010   27.0360   24.6460 C.3     7  GLU7        0.1163
     23  CD        11.2030   27.9690   24.5980 C.2     7  GLU7        0.3649
     24  OE1       11.5520   28.4510   23.4950 O.co2   7  GLU7       -0.2457
     25  OE2       11.7910   28.2310   25.6740 O.co2   7  GLU7       -0.2457
     26  N         10.4240   25.5260   20.1430 N.am    8  GLU8       -0.1963
     27  CA         9.9170   25.1750   18.8190 C.3     8  GLU8        0.1733
     28  C         10.7130   24.0230   18.2010 C.2     8  GLU8        0.2616
     29  O         10.5920   23.7480   17.0070 O.2     8  GLU8       -0.2715
     30  CB         9.9970   26.3830   17.8820 C.3     8  GLU8        0.0429
     31  CG         9.2780   27.6170   18.3860 C.3     8  GLU8        0.1163
     32  CD         9.4190   28.7930   17.4420 C.2     8  GLU8        0.3649
     33  OE1       10.5590   29.1030   17.0320 O.co2   8  GLU8       -0.2457
     34  OE2        8.3880   29.4150   17.1150 O.co2   8  GLU8       -0.2457
     35  N         11.5270   23.3580   19.0130 N.am    9  GLY9       -0.1955
     36  CA        12.3230   22.2550   18.5120 C.3     9  GLY9        0.1869
     37  C         13.6650   22.6820   17.9400 C.2     9  GLY9        0.2309
     38  O         14.2950   21.9280   17.1950 O.2     9  GLY9       -0.2863
     39  N         11.5950   24.3090   29.5000 N.3   218  TRP218     -0.1241
     40  CA        11.9140   23.1550   28.6750 C.3   218  TRP218      0.1605
     41  C         12.6750   22.1790   29.5720 C.2   218  TRP218      0.2264
     42  O         13.4100   22.6000   30.4690 O.2   218  TRP218     -0.2867
     43  CB        12.8030   23.6080   27.5150 C.3   218  TRP218      0.0550
     44  CG        13.1830   22.5400   26.5450 C.ar  218  TRP218      0.0003
     45  CD1       12.5620   22.2420   25.3610 C.ar  218  TRP218      0.0946
     46  CD2       14.3100   21.6610   26.6410 C.ar  218  TRP218      0.0152
     47  NE1       13.2380   21.2370   24.7130 N.ar  218  TRP218     -0.2442
     48  CE2       14.3160   20.8630   25.4750 C.ar  218  TRP218      0.0810
     49  CE3       15.3210   21.4760   27.5980 C.ar  218  TRP218      0.0012
     50  CZ2       15.2960   19.8890   25.2370 C.ar  218  TRP218      0.0191
     51  CZ3       16.2950   20.5100   27.3600 C.ar  218  TRP218      0.0001
     52  CH2       16.2740   19.7300   26.1880 C.ar  218  TRP218      0.0015
     53  N         11.2240   15.6230   28.4600 N.3   241  LYS241     -0.1245
     54  CA        11.6910   14.8850   27.2960 C.3   241  LYS241      0.1561
     55  C         12.7700   13.9140   27.7780 C.2   241  LYS241      0.2260
     56  O         13.1760   13.9620   28.9420 O.2   241  LYS241     -0.2867
     57  CB        12.3010   15.8350   26.2590 C.3   241  LYS241      0.0271
     58  CG        11.3120   16.8120   25.6280 C.3   241  LYS241      0.0035
     59  CD        11.8870   17.4100   24.3470 C.3   241  LYS241      0.0206
     60  CE        10.9010   18.3510   23.6730 C.3   241  LYS241      0.1093
     61  NZ        11.3670   18.7140   22.3010 N.3   241  LYS241     -0.1314
     62  N          8.1140   11.8240   18.5090 N.3   278  PRO278     -0.2102
     63  CA         9.1420   12.7990   18.1290 C.3   278  PRO278      0.1504
     64  C          9.1050   14.0810   18.9520 C.2   278  PRO278      0.2575
     65  O          9.9910   14.9270   18.8320 O.2   278  PRO278     -0.2718
     66  CB         8.8600   13.0400   16.6450 C.3   278  PRO278      0.0282
     67  CG         7.3620   12.8760   16.5620 C.3   278  PRO278      0.0208
     68  CD         7.1220   11.6500   17.4300 C.3   278  PRO278      0.0893
     69  N          8.0850   14.2210   19.7920 N.am  279  PHE279     -0.1977
     70  CA         7.9690   15.4040   20.6280 C.3   279  PHE279      0.1639
     71  C          8.6020   15.1570   21.9980 C.2   279  PHE279      0.2290
     72  O          8.7270   16.0690   22.8100 O.2   279  PHE279     -0.2864
     73  CB         6.4990   15.8050   20.7530 C.3   279  PHE279      0.0560
     74  CG         5.8190   15.9720   19.4210 C.ar  279  PHE279     -0.0200
     75  CD1        4.9050   15.0270   18.9670 C.ar  279  PHE279     -0.0042
     76  CD2        6.1480   17.0400   18.5880 C.ar  279  PHE279     -0.0042
     77  CE1        4.3280   15.1390   17.6980 C.ar  279  PHE279     -0.0003
     78  CE2        5.5790   17.1610   17.3170 C.ar  279  PHE279     -0.0003
     79  CZ         4.6680   16.2060   16.8730 C.ar  279  PHE279     -0.0000
     80  N         13.2830   13.5970   12.2560 N.3   307  GLU307     -0.1231
     81  CA        12.4360   14.1200   13.3310 C.3   307  GLU307      0.1699
     82  C         13.1310   14.1590   14.6980 C.2   307  GLU307      0.2593
     83  O         14.2170   13.6070   14.8650 O.2   307  GLU307     -0.2718
     84  CB        11.1620   13.2790   13.4240 C.3   307  GLU307      0.0402
     85  CG        10.2970   13.3420   12.1640 C.3   307  GLU307      0.1161
     86  CD         9.1580   12.3400   12.1810 C.2   307  GLU307      0.3649
     87  OE1        8.3980   12.3000   13.1770 O.co2 307  GLU307     -0.2457
     88  OE2        9.0180   11.5910   11.1920 O.co2 307  GLU307     -0.2457
     89  N         12.4910   14.8090   15.6690 N.am  308  GLY308     -0.1942
     90  CA        13.0590   14.9180   17.0050 C.3   308  GLY308      0.2014
     91  C         13.7890   16.2380   17.2050 C.2   308  GLY308      0.2638
     92  O         13.8590   17.0440   16.2870 O.2   308  GLY308     -0.2714
     93  N         14.3310   16.4730   18.3990 N.am  309  GLN309     -0.1977
     94  CA        15.0600   17.7160   18.6730 C.3   309  GLN309      0.1601
     95  C         16.5340   17.3670   18.8540 C.2   309  GLN309      0.2287
     96  O         16.9240   16.7440   19.8430 O.2   309  GLN309     -0.2864
     97  CB        14.5060   18.4040   19.9210 C.3   309  GLN309      0.0394
     98  CG        15.2490   19.6780   20.3110 C.3   309  GLN309      0.0908
     99  CD        14.4250   20.5730   21.2170 C.2   309  GLN309      0.2608
    100  OE1       13.7120   20.0900   22.0980 O.2   309  GLN309     -0.2717
    101  NE2       14.5240   21.8830   21.0120 N.am  309  GLN309     -0.0878
    102  N         18.0290   22.1090    8.9620 N.3   333  HIS333     -0.1241
    103  CA        17.0830   21.6170    9.9480 C.3   333  HIS333      0.1621
    104  C         15.9670   22.6170   10.2300 C.2   333  HIS333      0.2264
    105  O         14.7920   22.2560   10.2660 O.2   333  HIS333     -0.2867
    106  CB        17.7910   21.2840   11.2670 C.3   333  HIS333      0.0745
    107  CG        16.8480   20.9320   12.3740 C.ar  333  HIS333      0.0817
    108  ND1       16.3240   21.8750   13.2320 N.ar  333  HIS333     -0.2268
    109  CD2       16.2640   19.7560   12.7080 C.ar  333  HIS333      0.1154
    110  CE1       15.4580   21.2960   14.0450 C.ar  333  HIS333      0.1986
    111  NE2       15.4020   20.0110   13.7470 N.ar  333  HIS333     -0.2212
    112  N         13.7250   20.7800    7.2430 N.3   337  ALA337     -0.1231
    113  CA        13.3480   19.5670    7.9670 C.3   337  ALA337      0.1694
    114  C         12.0450   19.6030    8.7640 C.2   337  ALA337      0.2593
    115  O         12.0610   19.7480    9.9830 O.2   337  ALA337     -0.2718
    116  CB        14.5060   19.1440    8.8830 C.3   337  ALA337      0.0304
    117  N         10.9210   19.4390    8.0720 N.am  338  GLY338     -0.1942
    118  CA         9.6330   19.4410    8.7410 C.3   338  GLY338      0.2014
    119  C          8.7020   18.3920    8.1580 C.2   338  GLY338      0.2639
    120  O          8.9550   17.8770    7.0690 O.2   338  GLY338     -0.2714
    121  N          7.6350   18.0620    8.8860 N.am  339  GLY339     -0.1939
    122  CA         6.6730   17.0850    8.3980 C.3   339  GLY339      0.2014
    123  C          6.9760   15.6280    8.7120 C.2   339  GLY339      0.2639
    124  O          7.9630   15.3070    9.3810 O.2   339  GLY339     -0.2714
    125  N          6.1090   14.7410    8.2330 N.am  340  SER340     -0.1949
    126  CA         6.2750   13.3110    8.4490 C.3   340  SER340      0.1924
    127  C          7.4430   12.8180    7.5970 C.2   340  SER340      0.2314
    128  O          7.9720   13.5630    6.7710 O.2   340  SER340     -0.2863
    129  CB         5.0010   12.5650    8.0560 C.3   340  SER340      0.2116
    130  OG         4.7490   12.7280    6.6710 O.3   340  SER340     -0.2180
    131  N         11.1670   14.2730    3.8560 N.3   355  ARG355     -0.1245
    132  CA        10.4500   14.9280    4.9420 C.3   355  ARG355      0.1563
    133  C          9.3540   15.6130    4.1280 C.2   355  ARG355      0.2260
    134  O          9.6450   16.3580    3.1910 O.2   355  ARG355     -0.2867
    135  CB        11.3320   15.9520    5.6770 C.3   355  ARG355      0.0307
    136  CG        12.4300   15.3290    6.5770 C.3   355  ARG355      0.0489
    137  CD        11.8640   14.3560    7.6200 C.3   355  ARG355      0.2205
    138  NE        10.9150   14.9770    8.5470 N.pl3 355  ARG355     -0.0865
    139  CZ        11.2430   15.8170    9.5280 C.cat 355  ARG355      0.5346
    140  NH1       12.5120   16.1540    9.7340 N.pl3 355  ARG355      0.1354
    141  NH2       10.2950   16.3230   10.3120 N.pl3 355  ARG355      0.1354
    142  N          6.0660   20.8570    6.7920 N.3   358  ASP358     -0.1239
    143  CA         5.0680   21.3160    7.7460 C.3   358  ASP358      0.1674
    144  C          4.6360   22.7060    7.3130 C.2   358  ASP358      0.2266
    145  O          4.8800   23.0990    6.1700 O.2   358  ASP358     -0.2867
    146  CB         5.6020   21.3280    9.1930 C.3   358  ASP358      0.1410
    147  CG         6.8630   22.1570    9.3650 C.2   358  ASP358      0.3668
    148  OD1        7.0230   23.1940    8.6910 O.co2 358  ASP358     -0.2456
    149  OD2        7.6970   21.7760   10.2110 O.co2 358  ASP358     -0.2456
    150  N          8.2860   24.7650    7.0760 N.3   361  ARG361     -0.1245
    151  CA         9.3630   24.1160    6.3430 C.3   361  ARG361      0.1563
    152  C          8.7960   23.2360    5.2410 C.2   361  ARG361      0.2260
    153  O          8.0090   22.3280    5.5030 O.2   361  ARG361     -0.2867
    154  CB        10.2180   23.3050    7.3200 C.3   361  ARG361      0.0307
    155  CG        10.8050   24.1770    8.4210 C.3   361  ARG361      0.0489
    156  CD        11.4790   23.3700    9.5130 C.3   361  ARG361      0.2205
    157  NE        10.5110   22.6270   10.3120 N.pl3 361  ARG361     -0.0865
    158  CZ        10.8150   21.9690   11.4230 C.cat 361  ARG361      0.5346
    159  NH1       12.0670   21.9580   11.8630 N.pl3 361  ARG361      0.1354
    160  NH2        9.8670   21.3450   12.1030 N.pl3 361  ARG361      0.1354
@<TRIPOS>BOND
     1   134   133    2
     2   131   132    1
     3   133   132    1
     4   132   135    1
     5   152   153    2
     6   152   151    1
     7   135   136    1
     8   145   144    2
     9   151   150    1
    10   151   154    1
    11   136   137    1
    12   130   129    1
    13   128   127    2
    14   142   143    1
    15   120   119    2
    16   112   113    1
    17   144   143    1
    18   154   155    1
    19   127   126    1
    20   137   138    1
    21   143   146    1
    22   113   114    1
    23   113   116    1
    24   129   126    1
    25   117   118    1
    26   117   114   am
    27   119   118    1
    28   119   121   am
    29   125   126    1
    30   125   123   am
    31   122   123    1
    32   122   121    1
    33   155   156    1
    34   138   139    2
    35   148   147   ar
    36   123   124    2
    37   114   115    2
    38   102   103    1
    39   146   147    1
    40   147   149   ar
    41   156   157    1
    42   139   140    1
    43   139   141    1
    44   103   104    1
    45   103   106    1
    46   104   105    2
    47   157   158    2
    48    88    86   ar
    49   106   107    1
    50   158   159    1
    51   158   160    1
    52    85    86    1
    53    85    84    1
    54    86    87   ar
    55    80    81    1
    56   107   109   ar
    57   107   108   ar
    58   109   111   ar
    59   108   110   ar
    60    81    84    1
    61    81    82    1
    62   111   110   ar
    63     7     6    1
    64     8     6    1
    65     6     5    1
    66     1     2    1
    67    82    83    2
    68    82    89   am
    69     5     2    1
    70     2     3    1
    71    89    90    1
    72    92    91    2
    73    67    66    1
    74    67    68    1
    75    66    63    1
    76    79    78   ar
    77    79    77   ar
    78     3     4    2
    79    90    91    1
    80    29    28    2
    81    33    32   ar
    82    34    32   ar
    83    38    37    2
    84    91    93   am
    85    78    76   ar
    86    68    62    1
    87    32    31    1
    88    77    75   ar
    89    30    31    1
    90    30    27    1
    91    37    36    1
    92    63    62    1
    93    63    64    1
    94    28    27    1
    95    28    35   am
    96    93    94    1
    97    36    35    1
    98    76    74   ar
    99    94    95    1
   100    94    97    1
   101    27    26    1
   102    65    64    2
   103    95    96    2
   104    64    69   am
   105    75    74   ar
   106    74    73    1
   107    69    70    1
   108    97    98    1
   109    26    19   am
   110    98    99    1
   111    70    73    1
   112    70    71    1
   113   101    99   am
   114     9    10    1
   115    99   100    2
   116    20    19    2
   117    19    18    1
   118    12    11    2
   119    10    11    1
   120    10    13    1
   121    11    17   am
   122    71    72    2
   123    61    60    1
   124    17    18    1
   125    18    21    1
   126    13    14    1
   127    21    22    1
   128    24    23   ar
   129    15    14    1
   130    60    59    1
   131    14    16    1
   132    59    58    1
   133    23    22    1
   134    23    25   ar
   135    47    45   ar
   136    47    48   ar
   137    50    48   ar
   138    50    52   ar
   139    45    44   ar
   140    48    46   ar
   141    58    57    1
   142    52    51   ar
   143    57    54    1
   144    44    46   ar
   145    44    43    1
   146    46    49   ar
   147    54    55    1
   148    54    53    1
   149    51    49   ar
   150    43    40    1
   151    55    56    2
   152    40    39    1
   153    40    41    1
   154    41    42    2
