@<TRIPOS>MOLECULE
tmp/1mxdA03.pdb
 155 153 0 0 0
SMALL
GASTEIGER

@<TRIPOS>ATOM
      1  N         33.7910   16.0120   28.4950 N.3    18  TRP18      -0.1241
      2  CA        34.4830   15.5670   29.6950 C.3    18  TRP18       0.1605
      3  C         35.8720   16.1700   29.8720 C.2    18  TRP18       0.2264
      4  O         36.7100   16.1050   28.9760 O.2    18  TRP18      -0.2867
      5  CB        34.5740   14.0410   29.7480 C.3    18  TRP18       0.0550
      6  CG        34.8630   13.6040   31.1270 C.ar   18  TRP18       0.0003
      7  CD1       36.0650   13.1950   31.6270 C.ar   18  TRP18       0.0946
      8  CD2       33.9590   13.6540   32.2380 C.ar   18  TRP18       0.0152
      9  NE1       35.9680   12.9950   32.9820 N.ar   18  TRP18      -0.2442
     10  CE2       34.6870   13.2690   33.3860 C.ar   18  TRP18       0.0810
     11  CE3       32.6050   13.9950   32.3750 C.ar   18  TRP18       0.0012
     12  CZ2       34.1070   13.2110   34.6620 C.ar   18  TRP18       0.0191
     13  CZ3       32.0230   13.9390   33.6440 C.ar   18  TRP18       0.0001
     14  CH2       32.7780   13.5490   34.7720 C.ar   18  TRP18       0.0015
     15  N         29.5220   16.9190   38.5230 N.3    62  TYR62      -0.1241
     16  CA        28.6700   15.7720   38.8270 C.3    62  TYR62       0.1605
     17  C         28.8700   15.1570   40.2160 C.2    62  TYR62       0.2264
     18  O         28.3450   14.0830   40.5190 O.2    62  TYR62      -0.2867
     19  CB        28.8430   14.7240   37.7270 C.3    62  TYR62       0.0534
     20  CG        28.3320   15.2180   36.3920 C.ar   62  TYR62      -0.0201
     21  CD1       26.9620   15.2550   36.1210 C.ar   62  TYR62      -0.0009
     22  CD2       29.2120   15.7120   35.4240 C.ar   62  TYR62      -0.0009
     23  CE1       26.4760   15.7780   34.9190 C.ar   62  TYR62       0.0417
     24  CE2       28.7380   16.2380   34.2170 C.ar   62  TYR62       0.0417
     25  CZ        27.3710   16.2700   33.9740 C.ar   62  TYR62       0.1957
     26  OH        26.8920   16.8100   32.8000 O.3    62  TYR62      -0.2866
     27  N         21.9910   18.0880   38.9100 N.3   108  VAL108     -0.1245
     28  CA        22.5030   16.8540   39.5070 C.3   108  VAL108      0.1561
     29  C         21.9480   16.7190   40.9270 C.2   108  VAL108      0.2260
     30  O         22.5500   17.2080   41.8810 O.2   108  VAL108     -0.2867
     31  CB        24.0470   16.8880   39.5700 C.3   108  VAL108      0.0252
     32  CG1       24.5860   15.5640   40.1140 C.3   108  VAL108      0.0019
     33  CG2       24.6120   17.1800   38.1710 C.3   108  VAL108      0.0019
     34  N         22.5910   12.5920   43.8720 N.3   111  HIS111     -0.1241
     35  CA        23.6040   12.4350   44.9010 C.3   111  HIS111      0.1621
     36  C         24.3530   13.7170   45.2060 C.2   111  HIS111      0.2264
     37  O         24.2510   14.7090   44.4850 O.2   111  HIS111     -0.2867
     38  CB        24.6100   11.3860   44.4440 C.3   111  HIS111      0.0745
     39  CG        25.1260   11.6290   43.0600 C.ar  111  HIS111      0.0817
     40  ND1       24.4780   11.1690   41.9340 N.ar  111  HIS111     -0.2268
     41  CD2       26.1800   12.3580   42.6180 C.ar  111  HIS111      0.1154
     42  CE1       25.1080   11.6060   40.8570 C.ar  111  HIS111      0.1986
     43  NE2       26.1430   12.3300   41.2440 N.ar  111  HIS111     -0.2212
     44  N         24.4660    6.1570   42.7700 N.3   159  PHE159     -0.1241
     45  CA        25.5610    6.3890   41.8410 C.3   159  PHE159      0.1605
     46  C         26.8520    6.1890   42.6310 C.2   159  PHE159      0.2264
     47  O         27.1900    6.9930   43.5050 O.2   159  PHE159     -0.2867
     48  CB        25.5160    7.8090   41.2710 C.3   159  PHE159      0.0534
     49  CG        26.5760    8.0690   40.2500 C.ar  159  PHE159     -0.0203
     50  CD1       26.5390    7.4260   39.0240 C.ar  159  PHE159     -0.0042
     51  CD2       27.6550    8.8940   40.5430 C.ar  159  PHE159     -0.0042
     52  CE1       27.5620    7.5880   38.1020 C.ar  159  PHE159     -0.0003
     53  CE2       28.6860    9.0650   39.6290 C.ar  159  PHE159     -0.0003
     54  CZ        28.6400    8.4090   38.4080 C.ar  159  PHE159     -0.0000
     55  N         18.1280   20.0020   32.3810 N.3   196  ARG196     -0.1245
     56  CA        18.6500   18.7250   31.9050 C.3   196  ARG196      0.1563
     57  C         18.8550   17.9690   33.2190 C.2   196  ARG196      0.2260
     58  O         19.7520   18.2980   33.9990 O.2   196  ARG196     -0.2867
     59  CB        19.9810   18.9330   31.1630 C.3   196  ARG196      0.0307
     60  CG        20.6360   17.6520   30.6020 C.3   196  ARG196      0.0489
     61  CD        21.5050   16.9450   31.6460 C.3   196  ARG196      0.2205
     62  NE        22.1610   15.7440   31.1140 N.pl3 196  ARG196     -0.0865
     63  CZ        22.9690   14.9590   31.8200 C.cat 196  ARG196      0.5346
     64  NH1       23.2300   15.2440   33.0910 N.pl3 196  ARG196      0.1354
     65  NH2       23.5140   13.8840   31.2610 N.pl3 196  ARG196      0.1354
     66  N         20.0780   15.0830   35.4660 N.3   198  ASP198     -0.1225
     67  CA        21.1000   14.0540   35.5340 C.3   198  ASP198      0.1805
     68  C         20.6500   12.7530   36.2040 C.2   198  ASP198      0.2597
     69  O         20.0030   12.7800   37.2470 O.2   198  ASP198     -0.2718
     70  CB        22.3070   14.6100   36.3020 C.3   198  ASP198      0.1424
     71  CG        23.4620   13.6410   36.3460 C.2   198  ASP198      0.3668
     72  OD1       24.0580   13.4030   35.2830 O.co2 198  ASP198     -0.2456
     73  OD2       23.7730   13.1140   37.4350 O.co2 198  ASP198     -0.2456
     74  N         21.0110   11.6240   35.5970 N.am  199  TYR199     -0.1976
     75  CA        20.7080   10.2930   36.1320 C.3   199  TYR199      0.1639
     76  C         19.3120   10.1580   36.7540 C.2   199  TYR199      0.2290
     77  O         19.1690    9.8320   37.9370 O.2   199  TYR199     -0.2864
     78  CB        21.7940    9.9270   37.1560 C.3   199  TYR199      0.0560
     79  CG        21.6810    8.5460   37.7740 C.ar  199  TYR199     -0.0198
     80  CD1       21.3720    7.4290   36.9980 C.ar  199  TYR199     -0.0009
     81  CD2       21.9130    8.3570   39.1360 C.ar  199  TYR199     -0.0009
     82  CE1       21.2970    6.1480   37.5700 C.ar  199  TYR199      0.0417
     83  CE2       21.8430    7.0940   39.7160 C.ar  199  TYR199      0.0417
     84  CZ        21.5360    5.9940   38.9320 C.ar  199  TYR199      0.1957
     85  OH        21.4830    4.7440   39.5100 O.3   199  TYR199     -0.2866
     86  N         17.3000    7.9060   36.5390 N.3   201  LYS201     -0.1245
     87  CA        16.9840    6.5390   36.9370 C.3   201  LYS201      0.1561
     88  C         17.2950    6.3510   38.4230 C.2   201  LYS201      0.2260
     89  O         16.9500    5.3260   39.0120 O.2   201  LYS201     -0.2867
     90  CB        17.7940    5.5250   36.1210 C.3   201  LYS201      0.0271
     91  CG        17.4600    5.5050   34.6360 C.3   201  LYS201      0.0035
     92  CD        17.7680    4.1510   34.0000 C.3   201  LYS201      0.0206
     93  CE        19.2410    3.7850   34.0880 C.3   201  LYS201      0.1093
     94  NZ        19.4980    2.4270   33.4990 N.3   201  LYS201     -0.1314
     95  N         17.9950   12.5700   31.6590 N.3   222  GLU222     -0.1245
     96  CA        18.9650   11.6360   31.1260 C.3   222  GLU222      0.1567
     97  C         18.6300   10.2720   31.7190 C.2   222  GLU222      0.2260
     98  O         18.9970    9.9620   32.8520 O.2   222  GLU222     -0.2867
     99  CB        20.3900   12.0160   31.5130 C.3   222  GLU222      0.0388
    100  CG        21.3730   10.9710   31.0350 C.3   222  GLU222      0.1160
    101  CD        22.5030   10.7450   32.0080 C.2   222  GLU222      0.3649
    102  OE1       22.3280   11.0290   33.2100 O.co2 222  GLU222     -0.2457
    103  OE2       23.5620   10.2640   31.5690 O.co2 222  GLU222     -0.2457
    104  N         19.4710    6.8090   30.8310 N.3   224  TRP224     -0.1227
    105  CA        20.3300    5.9690   30.0000 C.3   224  TRP224      0.1737
    106  C         19.8680    4.5180   29.9260 C.2   224  TRP224      0.2595
    107  O         20.1920    3.7000   30.7900 O.2   224  TRP224     -0.2718
    108  CB        21.7660    6.0250   30.5220 C.3   224  TRP224      0.0564
    109  CG        22.8040    5.6060   29.5160 C.ar  224  TRP224      0.0003
    110  CD1       22.6790    4.6480   28.5490 C.ar  224  TRP224      0.0946
    111  CD2       24.1490    6.0880   29.4310 C.ar  224  TRP224      0.0152
    112  NE1       23.8670    4.5020   27.8680 N.ar  224  TRP224     -0.2442
    113  CE2       24.7860    5.3740   28.3910 C.ar  224  TRP224      0.0810
    114  CE3       24.8820    7.0530   30.1380 C.ar  224  TRP224      0.0012
    115  CZ2       26.1220    5.5950   28.0380 C.ar  224  TRP224      0.0191
    116  CZ3       26.2140    7.2710   29.7870 C.ar  224  TRP224      0.0001
    117  CH2       26.8180    6.5420   28.7440 C.ar  224  TRP224      0.0015
    118  N         19.1310    4.1990   28.8680 N.am  225  ASP225     -0.1974
    119  CA        18.6100    2.8540   28.6930 C.3   225  ASP225      0.1709
    120  C         18.1910    2.6460   27.2420 C.2   225  ASP225      0.2293
    121  O         17.9350    3.6140   26.5200 O.2   225  ASP225     -0.2864
    122  CB        17.4100    2.6680   29.6150 C.3   225  ASP225      0.1436
    123  CG        17.1070    1.2230   29.8910 C.2   225  ASP225      0.3671
    124  OD1       16.6520    0.5090   28.9750 O.co2 225  ASP225     -0.2456
    125  OD2       17.3350    0.8050   31.0400 O.co2 225  ASP225     -0.2456
    126  N         22.2390    4.2520   19.7160 N.3   249  TYR249     -0.1241
    127  CA        22.8080    2.9390   19.4690 C.3   249  TYR249      0.1605
    128  C         22.4270    2.3590   18.1080 C.2   249  TYR249      0.2264
    129  O         23.2320    1.6590   17.4890 O.2   249  TYR249     -0.2867
    130  CB        22.4320    1.9830   20.6060 C.3   249  TYR249      0.0534
    131  CG        23.0910    2.3570   21.9170 C.ar  249  TYR249     -0.0201
    132  CD1       24.4800    2.3340   22.0480 C.ar  249  TYR249     -0.0009
    133  CD2       22.3310    2.7730   23.0160 C.ar  249  TYR249     -0.0009
    134  CE1       25.1030    2.7200   23.2340 C.ar  249  TYR249      0.0417
    135  CE2       22.9440    3.1600   24.2140 C.ar  249  TYR249      0.0417
    136  CZ        24.3290    3.1340   24.3140 C.ar  249  TYR249      0.1957
    137  OH        24.9470    3.5410   25.4790 O.3   249  TYR249     -0.2866
    138  N         29.2200   13.8150   26.5400 N.3   288  HIS288     -0.1226
    139  CA        30.3870   13.7290   27.4230 C.3   288  HIS288      0.1752
    140  C         30.6460   12.3720   28.0770 C.2   288  HIS288      0.2596
    141  O         31.7060   12.1680   28.6670 O.2   288  HIS288     -0.2718
    142  CB        30.2650   14.7800   28.5250 C.3   288  HIS288      0.0759
    143  CG        29.0530   14.6010   29.3840 C.ar  288  HIS288      0.0818
    144  ND1       27.7710   14.6340   28.8760 N.ar  288  HIS288     -0.2268
    145  CD2       28.9250   14.3480   30.7080 C.ar  288  HIS288      0.1154
    146  CE1       26.9070   14.4080   29.8500 C.ar  288  HIS288      0.1986
    147  NE2       27.5810   14.2310   30.9720 N.ar  288  HIS288     -0.2212
    148  N         29.6840   11.4590   27.9880 N.am  289  ASP289     -0.1974
    149  CA        29.8090   10.1290   28.5880 C.3   289  ASP289      0.1709
    150  C         30.0990    9.0270   27.5780 C.2   289  ASP289      0.2293
    151  O         30.8200    8.0730   27.8720 O.2   289  ASP289     -0.2864
    152  CB        28.5170    9.7510   29.3120 C.3   289  ASP289      0.1436
    153  CG        28.2690   10.5780   30.5510 C.2   289  ASP289      0.3671
    154  OD1       27.0990   10.6460   30.9660 O.co2 289  ASP289     -0.2456
    155  OD2       29.2290   11.1400   31.1160 O.co2 289  ASP289     -0.2456
@<TRIPOS>BOND
     1   129   128    2
     2   128   127    1
     3   127   126    1
     4   127   130    1
     5   130   131    1
     6   131   132   ar
     7   131   133   ar
     8   132   134   ar
     9   133   135   ar
    10   134   136   ar
    11   135   136   ar
    12   136   137    1
    13   121   120    2
    14   138   139    1
    15   120   119    1
    16   139   140    1
    17   139   142    1
    18   150   151    2
    19   150   149    1
    20   112   113   ar
    21   112   110   ar
    22   148   140   am
    23   148   149    1
    24   115   113   ar
    25   115   117   ar
    26   140   141    2
    27   113   111   ar
    28     1     2    1
    29   142   143    1
    30   110   109   ar
    31   149   152    1
    32   119   118    1
    33   119   122    1
    34   117   116   ar
    35   118   106   am
    36   144   143   ar
    37   144   146   ar
    38   124   123   ar
    39     4     3    2
    40   152   153    1
    41   143   145   ar
    42   111   109   ar
    43   111   114   ar
    44   109   108    1
    45   122   123    1
    46     2     5    1
    47     2     3    1
    48     5     6    1
    49   116   114   ar
    50   146   147   ar
    51   123   125   ar
    52   106   105    1
    53   106   107    2
    54   105   108    1
    55   105   104    1
    56   153   154   ar
    57   153   155   ar
    58    60    59    1
    59    60    61    1
    60   145   147   ar
    61   100    99    1
    62   100   101    1
    63    62    61    1
    64    62    63    2
    65    96    99    1
    66    96    95    1
    67    96    97    1
    68     6     7   ar
    69     6     8   ar
    70    59    56    1
    71    65    63    1
    72   103   101   ar
    73     7     9   ar
    74    97    98    2
    75    63    64    1
    76    56    55    1
    77    56    57    1
    78   101   102   ar
    79     8    11   ar
    80     8    10   ar
    81    11    13   ar
    82    26    25    1
    83     9    10   ar
    84    57    58    2
    85    10    12   ar
    86    94    93    1
    87    13    14   ar
    88    25    24   ar
    89    25    23   ar
    90    92    93    1
    91    92    91    1
    92    24    22   ar
    93    91    90    1
    94    12    14   ar
    95    23    21   ar
    96    72    71   ar
    97    22    20   ar
    98    66    67    1
    99    67    68    1
   100    67    70    1
   101    74    75    1
   102    74    68   am
   103    90    87    1
   104    21    20   ar
   105    75    76    1
   106    75    78    1
   107    68    69    2
   108    70    71    1
   109    71    73   ar
   110    20    19    1
   111    86    87    1
   112    76    77    2
   113    87    88    1
   114    80    82   ar
   115    80    79   ar
   116    78    79    1
   117    82    84   ar
   118    19    16    1
   119    79    81   ar
   120    52    54   ar
   121    52    50   ar
   122    33    31    1
   123    54    53   ar
   124    88    89    2
   125    15    16    1
   126    16    17    1
   127    27    28    1
   128    84    85    1
   129    84    83   ar
   130    50    49   ar
   131    81    83   ar
   132    28    31    1
   133    28    29    1
   134    31    32    1
   135    53    51   ar
   136    17    18    2
   137    49    51   ar
   138    49    48    1
   139    42    43   ar
   140    42    40   ar
   141    29    30    2
   142    43    41   ar
   143    48    45    1
   144    45    46    1
   145    45    44    1
   146    40    39   ar
   147    41    39   ar
   148    46    47    2
   149    39    38    1
   150    34    35    1
   151    38    35    1
   152    37    36    2
   153    35    36    1
