@<TRIPOS>MOLECULE
tmp/1mxfB01.pdb
 151 145 0 0 0
SMALL
GASTEIGER

@<TRIPOS>ATOM
      1  N         58.7980   60.5860   33.2940 N.3    12  ARG12      -0.1245
      2  CA        58.4880   59.2220   33.6960 C.3    12  ARG12       0.1563
      3  C         58.0310   58.2860   32.5800 C.2    12  ARG12       0.2260
      4  O         58.6570   58.2180   31.5200 O.2    12  ARG12      -0.2867
      5  CB        57.4470   59.2810   34.8280 C.3    12  ARG12       0.0307
      6  CG        57.9920   59.9610   36.0970 C.3    12  ARG12       0.0489
      7  CD        56.9060   60.6350   36.9270 C.3    12  ARG12       0.2205
      8  NE        55.9720   59.6910   37.5320 N.pl3  12  ARG12      -0.0865
      9  CZ        56.2820   58.8640   38.5230 C.cat  12  ARG12       0.5346
     10  NH1       57.5080   58.8590   39.0250 N.pl3  12  ARG12       0.1354
     11  NH2       55.3600   58.0450   39.0150 N.pl3  12  ARG12       0.1354
     12  N         47.5980   62.0850   33.4150 N.3    93  SER93      -0.1217
     13  CA        46.6670   61.6770   34.4630 C.3    93  SER93       0.1889
     14  C         46.9070   62.3570   35.8130 C.2    93  SER93       0.2288
     15  O         48.0230   62.3920   36.3080 O.2    93  SER93      -0.2866
     16  CB        46.7520   60.1520   34.6020 C.3    93  SER93       0.2089
     17  OG        46.3590   59.7050   35.8840 O.3    93  SER93      -0.2183
     18  N         46.5110   62.4820   39.7980 N.3    95  TYR95      -0.1241
     19  CA        46.4130   61.4300   40.8030 C.3    95  TYR95       0.1605
     20  C         46.6520   61.8700   42.2460 C.2    95  TYR95       0.2264
     21  O         47.7640   62.2460   42.6180 O.2    95  TYR95      -0.2867
     22  CB        47.4030   60.3350   40.4450 C.3    95  TYR95       0.0534
     23  CG        47.5060   59.1740   41.4020 C.ar   95  TYR95      -0.0201
     24  CD1       46.4780   58.2370   41.5150 C.ar   95  TYR95      -0.0009
     25  CD2       48.6760   58.9600   42.1290 C.ar   95  TYR95      -0.0009
     26  CE1       46.6220   57.1120   42.3180 C.ar   95  TYR95       0.0417
     27  CE2       48.8280   57.8420   42.9320 C.ar   95  TYR95       0.0417
     28  CZ        47.8000   56.9230   43.0210 C.ar   95  TYR95       0.1957
     29  OH        47.9520   55.8210   43.8250 O.3    95  TYR95      -0.2866
     30  N         44.4120   61.6370   46.5150 N.3    97  PRO97      -0.2116
     31  CA        43.2250   61.2390   47.2880 C.3    97  PRO97       0.1372
     32  C         42.0910   62.2530   47.4050 C.2    97  PRO97       0.2244
     33  O         42.3000   63.4600   47.3160 O.2    97  PRO97      -0.2868
     34  CB        43.8120   60.8870   48.6480 C.3    97  PRO97       0.0268
     35  CG        44.9590   61.8590   48.7690 C.3    97  PRO97       0.0207
     36  CD        45.5910   61.7600   47.3940 C.3    97  PRO97       0.0892
     37  N         44.8900   51.3800   34.9580 N.3   140  ASP140     -0.1239
     38  CA        45.4820   51.0270   36.2450 C.3   140  ASP140      0.1674
     39  C         44.9610   49.6520   36.6690 C.2   140  ASP140      0.2266
     40  O         43.7960   49.5070   37.0470 O.2   140  ASP140     -0.2867
     41  CB        45.1090   52.0630   37.3050 C.3   140  ASP140      0.1410
     42  CG        45.8080   51.8150   38.6310 C.2   140  ASP140      0.3668
     43  OD1       46.2470   50.6710   38.8690 O.co2 140  ASP140     -0.2456
     44  OD2       45.9140   52.7600   39.4400 O.co2 140  ASP140     -0.2456
     45  N         41.9890   51.7080   45.8840 N.3   146  LEU146     -0.1245
     46  CA        42.9300   52.2380   46.8520 C.3   146  LEU146      0.1561
     47  C         42.0920   53.1130   47.7860 C.2   146  LEU146      0.2260
     48  O         41.4210   54.0430   47.3350 O.2   146  LEU146     -0.2867
     49  CB        43.9850   53.0800   46.1340 C.3   146  LEU146      0.0270
     50  CG        45.1100   53.6880   46.9770 C.3   146  LEU146      0.0019
     51  CD1       45.8640   52.5890   47.7110 C.3   146  LEU146      0.0001
     52  CD2       46.0460   54.4720   46.0710 C.3   146  LEU146      0.0001
     53  N         41.0690   57.1180   47.2220 N.3   149  PHE149     -0.1241
     54  CA        41.1900   57.5780   45.8420 C.3   149  PHE149      0.1605
     55  C         39.9220   57.2770   45.0680 C.2   149  PHE149      0.2264
     56  O         39.9620   56.8570   43.9160 O.2   149  PHE149     -0.2867
     57  CB        42.3880   56.9120   45.1660 C.3   149  PHE149      0.0534
     58  CG        43.7110   57.3850   45.6840 C.ar  149  PHE149     -0.0203
     59  CD1       44.0830   57.1520   47.0070 C.ar  149  PHE149     -0.0042
     60  CD2       44.5790   58.0860   44.8600 C.ar  149  PHE149     -0.0042
     61  CE1       45.3050   57.6150   47.5030 C.ar  149  PHE149     -0.0003
     62  CE2       45.8000   58.5530   45.3400 C.ar  149  PHE149     -0.0003
     63  CZ        46.1640   58.3180   46.6640 C.ar  149  PHE149     -0.0000
     64  N         39.5140   59.1720   41.6020 N.3   152  TYR152     -0.1241
     65  CA        40.4840   58.6620   40.6430 C.3   152  TYR152      0.1605
     66  C         40.0440   57.2800   40.1200 C.2   152  TYR152      0.2264
     67  O         40.1770   56.9860   38.9310 O.2   152  TYR152     -0.2867
     68  CB        41.8530   58.5400   41.3100 C.3   152  TYR152      0.0534
     69  CG        42.8520   57.7080   40.5390 C.ar  152  TYR152     -0.0201
     70  CD1       43.5810   58.2520   39.4780 C.ar  152  TYR152     -0.0009
     71  CD2       43.0720   56.3680   40.8730 C.ar  152  TYR152     -0.0009
     72  CE1       44.5110   57.4780   38.7700 C.ar  152  TYR152      0.0417
     73  CE2       43.9960   55.5860   40.1760 C.ar  152  TYR152      0.0417
     74  CZ        44.7110   56.1450   39.1300 C.ar  152  TYR152      0.1957
     75  OH        45.6270   55.3680   38.4620 O.3   152  TYR152     -0.2866
     76  N         39.2890   56.2380   36.2010 N.3   155  LYS155     -0.1245
     77  CA        39.9280   55.1490   35.4760 C.3   155  LYS155      0.1561
     78  C         38.9190   54.1050   34.9970 C.2   155  LYS155      0.2260
     79  O         39.0840   53.5390   33.9230 O.2   155  LYS155     -0.2867
     80  CB        41.0110   54.5000   36.3420 C.3   155  LYS155      0.0271
     81  CG        42.2580   55.3710   36.5240 C.3   155  LYS155      0.0035
     82  CD        42.9540   55.6350   35.1910 C.3   155  LYS155      0.0206
     83  CE        44.2870   56.3520   35.3970 C.3   155  LYS155      0.1093
     84  NZ        45.0000   56.6290   34.1170 N.3   155  LYS155     -0.1314
     85  N         50.5370   48.0300   37.1910 N.3   182  GLY182     -0.1210
     86  CA        50.1210   47.7420   38.5510 C.3   182  GLY182      0.1956
     87  C         50.8970   48.7160   39.4170 C.2   182  GLY182      0.2612
     88  O         50.3850   49.7530   39.8420 O.2   182  GLY182     -0.2717
     89  N         52.1510   48.3700   39.6770 N.am  183  LEU183     -0.1965
     90  CA        53.0480   49.2120   40.4550 C.3   183  LEU183      0.1728
     91  C         54.2310   49.5630   39.5640 C.2   183  LEU183      0.2617
     92  O         55.0470   48.7040   39.2320 O.2   183  LEU183     -0.2715
     93  CB        53.5680   48.4810   41.7050 C.3   183  LEU183      0.0311
     94  CG        54.6280   49.2640   42.5080 C.3   183  LEU183      0.0022
     95  CD1       53.9680   50.4620   43.1550 C.3   183  LEU183      0.0001
     96  CD2       55.2800   48.3860   43.5710 C.3   183  LEU183      0.0001
     97  N         54.3200   50.8200   39.1590 N.am  184  SER184     -0.1936
     98  CA        55.4430   51.2320   38.3320 C.3   184  SER184      0.2055
     99  C         56.2530   52.2960   39.0610 C.2   184  SER184      0.2643
    100  O         56.5440   52.1510   40.2490 O.2   184  SER184     -0.2714
    101  CB        54.9640   51.7630   36.9850 C.3   184  SER184      0.2130
    102  OG        56.0650   51.8990   36.1080 O.3   184  SER184     -0.2179
    103  N         56.6090   53.3680   38.3680 N.am  185  LEU185     -0.1963
    104  CA        57.4110   54.4140   38.9940 C.3   185  LEU185      0.1728
    105  C         56.7390   55.0330   40.2120 C.2   185  LEU185      0.2616
    106  O         55.6910   55.6680   40.1050 O.2   185  LEU185     -0.2715
    107  CB        57.7580   55.4940   37.9670 C.3   185  LEU185      0.0311
    108  CG        58.5060   54.9470   36.7450 C.3   185  LEU185      0.0022
    109  CD1       58.9470   56.0970   35.8590 C.3   185  LEU185      0.0001
    110  CD2       59.7180   54.1380   37.1970 C.3   185  LEU185      0.0001
    111  N         57.3530   54.8370   41.3740 N.am  186  LEU186     -0.1964
    112  CA        56.8250   55.3730   42.6260 C.3   186  LEU186      0.1713
    113  C         56.9480   56.9010   42.7070 C.2   186  LEU186      0.2458
    114  O         57.7580   57.5050   41.9980 O.2   186  LEU186     -0.2730
    115  CB        57.5540   54.7140   43.8000 C.3   186  LEU186      0.0310
    116  CG        57.2710   53.2110   43.8930 C.3   186  LEU186      0.0022
    117  CD1       58.3160   52.5280   44.7360 C.3   186  LEU186      0.0001
    118  CD2       55.8820   52.9940   44.4670 C.3   186  LEU186      0.0001
    119  N         56.1340   57.5490   43.5620 N.am  187  PRO187     -0.2727
    120  CA        56.2130   59.0120   43.6790 C.3   187  PRO187      0.1402
    121  C         57.6310   59.4130   44.0900 C.2   187  PRO187      0.2269
    122  O         58.1950   58.8450   45.0190 O.2   187  PRO187     -0.2865
    123  CB        55.1710   59.3290   44.7560 C.3   187  PRO187      0.0296
    124  CG        54.1650   58.2050   44.5920 C.3   187  PRO187      0.0237
    125  CD        55.0740   57.0090   44.4320 C.3   187  PRO187      0.0939
    126  N         59.4330   58.4660   50.6710 N.3   190  PRO190     -0.2116
    127  CA        60.6270   57.9860   51.3770 C.3   190  PRO190      0.1372
    128  C         60.9760   56.5360   51.0510 C.2   190  PRO190      0.2244
    129  O         60.1070   55.6620   51.0380 O.2   190  PRO190     -0.2868
    130  CB        60.2660   58.1890   52.8480 C.3   190  PRO190      0.0268
    131  CG        58.7770   58.0500   52.8560 C.3   190  PRO190      0.0207
    132  CD        58.3700   58.8230   51.6260 C.3   190  PRO190      0.0892
    133  N         59.3240   53.4970   52.5650 N.3   193  THR193     -0.1218
    134  CA        57.9320   53.2930   52.1610 C.3   193  THR193      0.1862
    135  C         57.9250   52.6230   50.7900 C.2   193  THR193      0.2287
    136  O         57.1710   51.6810   50.5450 O.2   193  THR193     -0.2866
    137  CB        57.1610   54.6240   52.0380 C.3   193  THR193      0.1770
    138  OG1       57.1730   55.3080   53.2970 O.3   193  THR193     -0.2211
    139  CG2       55.7190   54.3660   51.6250 C.3   193  THR193      0.0375
    140  N         56.3820   48.8700   49.3710 N.3   197  TYR197     -0.1241
    141  CA        55.5300   48.7120   48.2010 C.3   197  TYR197      0.1605
    142  C         56.0970   47.6640   47.2460 C.2   197  TYR197      0.2264
    143  O         55.3640   46.8050   46.7710 O.2   197  TYR197     -0.2867
    144  CB        55.3860   50.0420   47.4600 C.3   197  TYR197      0.0534
    145  CG        54.3550   50.9750   48.0470 C.ar  197  TYR197     -0.0201
    146  CD1       54.4160   51.3660   49.3790 C.ar  197  TYR197     -0.0009
    147  CD2       53.3310   51.4970   47.2560 C.ar  197  TYR197     -0.0009
    148  CE1       53.4840   52.2610   49.9130 C.ar  197  TYR197      0.0417
    149  CE2       52.3950   52.3900   47.7780 C.ar  197  TYR197      0.0417
    150  CZ        52.4780   52.7680   49.1060 C.ar  197  TYR197      0.1957
    151  OH        51.5540   53.6470   49.6270 O.3   197  TYR197     -0.2866
@<TRIPOS>BOND
     1     4     3    2
     2     3     2    1
     3     1     2    1
     4    12    13    1
     5     2     5    1
     6    79    78    2
     7    84    83    1
     8    13    16    1
     9    13    14    1
    10    16    17    1
    11     5     6    1
    12    37    38    1
    13    78    77    1
    14    82    83    1
    15    82    81    1
    16    77    76    1
    17    77    80    1
    18    14    15    2
    19   109   108    1
    20     6     7    1
    21   102   101    1
    22    38    39    1
    23    38    41    1
    24    80    81    1
    25    39    40    2
    26   108   110    1
    27   108   107    1
    28     7     8    1
    29   101    98    1
    30    85    86    1
    31    41    42    1
    32     8     9    2
    33   107   104    1
    34    98    99    1
    35    98    97    1
    36   103   104    1
    37   103    99   am
    38    75    74    1
    39     9    11    1
    40     9    10    1
    41    86    87    1
    42    42    43   ar
    43    42    44   ar
    44    72    74   ar
    45    72    70   ar
    46    67    66    2
    47   104   105    1
    48    99   100    2
    49    74    73   ar
    50    97    91   am
    51    92    91    2
    52    87    89   am
    53    87    88    2
    54    70    69   ar
    55    91    90    1
    56    89    90    1
    57    18    19    1
    58   106   105    2
    59    66    65    1
    60    73    71   ar
    61   105   111   am
    62    22    19    1
    63    22    23    1
    64    90    93    1
    65    69    71   ar
    66    69    68    1
    67    65    68    1
    68    65    64    1
    69    19    20    1
    70   111   112    1
    71    23    24   ar
    72    23    25   ar
    73    24    26   ar
    74    93    94    1
    75   114   113    2
    76    25    27   ar
    77    20    21    2
    78    26    28   ar
    79    94    95    1
    80    94    96    1
    81   112   113    1
    82   112   115    1
    83   113   119   am
    84    27    28   ar
    85    28    29    1
    86   119   120    1
    87   119   125    1
    88   120   121    1
    89   120   123    1
    90   115   116    1
    91   116   118    1
    92   116   117    1
    93    56    55    2
    94   121   122    2
    95   125   124    1
    96   124   123    1
    97    60    62   ar
    98    60    58   ar
    99    55    54    1
   100    57    58    1
   101    57    54    1
   102    62    63   ar
   103    58    59   ar
   104    54    53    1
   105    45    46    1
   106    52    50    1
   107    49    46    1
   108    49    50    1
   109    30    31    1
   110    30    36    1
   111    63    61   ar
   112   143   142    2
   113    46    47    1
   114    50    51    1
   115    59    61   ar
   116   142   141    1
   117   147   149   ar
   118   147   145   ar
   119    31    32    1
   120    31    34    1
   121    33    32    2
   122    48    47    2
   123    36    35    1
   124   144   145    1
   125   144   141    1
   126   149   150   ar
   127   145   146   ar
   128   141   140    1
   129    34    35    1
   130   150   151    1
   131   150   148   ar
   132   146   148   ar
   133   136   135    2
   134   126   127    1
   135   126   132    1
   136   135   134    1
   137   129   128    2
   138   128   127    1
   139   127   130    1
   140   139   137    1
   141   132   131    1
   142   137   134    1
   143   137   138    1
   144   134   133    1
   145   130   131    1
