@<TRIPOS>MOLECULE
tmp/1mxgA02.pdb
 132 131 0 0 0
SMALL
GASTEIGER

@<TRIPOS>ATOM
      1  N         22.1190    4.9300   20.5180 N.3     2  LYS2       -0.1231
      2  CA        22.1150    3.5320   20.1050 C.3     2  LYS2        0.1693
      3  C         22.1290    3.3580   18.5910 C.2     2  LYS2        0.2592
      4  O         22.8410    2.4980   18.0650 O.2     2  LYS2       -0.2718
      5  CB        20.9030    2.8140   20.7030 C.3     2  LYS2        0.0285
      6  CG        20.9340    1.3020   20.5320 C.3     2  LYS2        0.0035
      7  CD        19.7590    0.6540   21.2480 C.3     2  LYS2        0.0206
      8  CE        19.7760   -0.8580   21.0980 C.3     2  LYS2        0.1093
      9  NZ        18.6080   -1.4820   21.7790 N.3     2  LYS2       -0.1314
     10  N         21.3500    4.1790   17.8920 N.am    3  TYR3       -0.1976
     11  CA        21.2730    4.1020   16.4380 C.3     3  TYR3        0.1639
     12  C         21.7860    5.3900   15.7980 C.2     3  TYR3        0.2290
     13  O         22.9910    5.6320   15.7900 O.2     3  TYR3       -0.2864
     14  CB        19.8310    3.8110   16.0140 C.3     3  TYR3        0.0560
     15  CG        19.2550    2.5670   16.6640 C.ar    3  TYR3       -0.0198
     16  CD1       20.0110    1.3960   16.7610 C.ar    3  TYR3       -0.0009
     17  CD2       17.9530    2.5550   17.1680 C.ar    3  TYR3       -0.0009
     18  CE1       19.4840    0.2420   17.3430 C.ar    3  TYR3        0.0417
     19  CE2       17.4160    1.4030   17.7530 C.ar    3  TYR3        0.0417
     20  CZ        18.1880    0.2520   17.8360 C.ar    3  TYR3        0.1957
     21  OH        17.6690   -0.8910   18.4070 O.3     3  TYR3       -0.2866
     22  N         17.7400    2.4820   25.1640 N.3    39  GLU39      -0.1245
     23  CA        17.4120    1.2000   24.5520 C.3    39  GLU39       0.1567
     24  C         16.3610    1.3400   23.4570 C.2    39  GLU39       0.2260
     25  O         16.3380    0.5480   22.5140 O.2    39  GLU39      -0.2867
     26  CB        16.9220    0.2110   25.6130 C.3    39  GLU39       0.0388
     27  CG        17.9850   -0.2240   26.6190 C.3    39  GLU39       0.1160
     28  CD        19.2090   -0.8420   25.9620 C.2    39  GLU39       0.3649
     29  OE1       19.0510   -1.5760   24.9630 O.co2  39  GLU39      -0.2457
     30  OE2       20.3320   -0.6060   26.4570 O.co2  39  GLU39      -0.2457
     31  N          5.5260   -0.0370   22.7760 N.3   324  ASP324     -0.1239
     32  CA         6.1970   -0.9500   21.8600 C.3   324  ASP324      0.1674
     33  C          6.0590   -0.5170   20.4060 C.2   324  ASP324      0.2266
     34  O          6.9560   -0.7520   19.5970 O.2   324  ASP324     -0.2867
     35  CB         5.6610   -2.3750   22.0180 C.3   324  ASP324      0.1410
     36  CG         6.0190   -2.9850   23.3560 C.2   324  ASP324      0.3668
     37  OD1        7.1630   -2.7790   23.8140 O.co2 324  ASP324     -0.2456
     38  OD2        5.1620   -3.6790   23.9410 O.co2 324  ASP324     -0.2456
     39  N          8.5730    2.2560   19.8850 N.3   327  ILE327     -0.1231
     40  CA         9.9270    1.7130   19.8960 C.3   327  ILE327      0.1692
     41  C         10.1920    1.0600   18.5420 C.2   327  ILE327      0.2592
     42  O         11.2720    1.1970   17.9720 O.2   327  ILE327     -0.2718
     43  CB        10.1000    0.6710   21.0290 C.3   327  ILE327      0.0266
     44  CG1       10.0570    1.3820   22.3830 C.3   327  ILE327      0.0019
     45  CG2       11.4190   -0.0750   20.8680 C.3   327  ILE327      0.0020
     46  CD1        9.9670    0.4460   23.5680 C.3   327  ILE327      0.0001
     47  N          9.1900    0.3620   18.0210 N.am  328  ASN328     -0.1974
     48  CA         9.3220   -0.2930   16.7260 C.3   328  ASN328      0.1688
     49  C          9.5170    0.7530   15.6270 C.2   328  ASN328      0.2292
     50  O         10.3860    0.6070   14.7660 O.2   328  ASN328     -0.2864
     51  CB         8.0730   -1.1320   16.4370 C.3   328  ASN328      0.1181
     52  CG         8.0910   -1.7490   15.0520 C.2   328  ASN328      0.2629
     53  OD1        8.8980   -2.6350   14.7590 O.2   328  ASN328     -0.2716
     54  ND2        7.2040   -1.2770   14.1870 N.am  328  ASN328     -0.0877
     55  N         13.0040    2.1830   15.5360 N.3   331  TRP331     -0.1241
     56  CA        13.9390    1.2480   14.9170 C.3   331  TRP331      0.1605
     57  C         13.8130    1.3460   13.3970 C.2   331  TRP331      0.2264
     58  O         14.8120    1.4030   12.6800 O.2   331  TRP331     -0.2867
     59  CB        13.6450   -0.1870   15.3650 C.3   331  TRP331      0.0550
     60  CG        14.6250   -1.1840   14.8170 C.ar  331  TRP331      0.0003
     61  CD1       15.8100   -1.5710   15.3820 C.ar  331  TRP331      0.0946
     62  CD2       14.5370   -1.8700   13.5630 C.ar  331  TRP331      0.0152
     63  NE1       16.4640   -2.4530   14.5550 N.ar  331  TRP331     -0.2442
     64  CE2       15.7050   -2.6540   13.4310 C.ar  331  TRP331      0.0810
     65  CE3       13.5840   -1.8970   12.5350 C.ar  331  TRP331      0.0012
     66  CZ2       15.9470   -3.4570   12.3110 C.ar  331  TRP331      0.0191
     67  CZ3       13.8250   -2.6960   11.4190 C.ar  331  TRP331      0.0001
     68  CH2       14.9990   -3.4650   11.3190 C.ar  331  TRP331      0.0015
     69  N          9.7210   -8.1110    3.8630 N.3   390  HIS390     -0.1226
     70  CA         9.2510   -8.5120    5.1790 C.3   390  HIS390      0.1752
     71  C          8.4730   -7.3680    5.8240 C.2   390  HIS390      0.2596
     72  O          8.7640   -6.1990    5.5720 O.2   390  HIS390     -0.2718
     73  CB        10.4660   -8.8820    6.0390 C.3   390  HIS390      0.0759
     74  CG        10.1310   -9.2530    7.4490 C.ar  390  HIS390      0.0818
     75  ND1        9.4170  -10.3870    7.7730 N.ar  390  HIS390     -0.2268
     76  CD2       10.4240   -8.6440    8.6220 C.ar  390  HIS390      0.1154
     77  CE1        9.2860  -10.4600    9.0850 C.ar  390  HIS390      0.1986
     78  NE2        9.8880   -9.4150    9.6240 N.ar  390  HIS390     -0.2212
     79  N          7.4780   -7.7060    6.6390 N.am  391  GLU391     -0.1965
     80  CA         6.6810   -6.6990    7.3360 C.3   391  GLU391      0.1733
     81  C          7.3810   -6.5220    8.6840 C.2   391  GLU391      0.2616
     82  O          7.4780   -7.4670    9.4700 O.2   391  GLU391     -0.2715
     83  CB         5.2430   -7.1970    7.5110 C.3   391  GLU391      0.0429
     84  CG         4.2140   -6.1010    7.7760 C.3   391  GLU391      0.1163
     85  CD         4.3840   -5.4540    9.1340 C.2   391  GLU391      0.3649
     86  OE1        4.5520   -6.2010   10.1170 O.co2 391  GLU391     -0.2457
     87  OE2        4.3370   -4.2060    9.2230 O.co2 391  GLU391     -0.2457
     88  N          7.8660   -5.3100    8.9460 N.am  392  TYR392     -0.1960
     89  CA         8.6240   -5.0370   10.1660 C.3   392  TYR392      0.1771
     90  C          7.9380   -4.5080   11.4250 C.2   392  TYR392      0.2620
     91  O          8.6200   -4.2300   12.4130 O.2   392  TYR392     -0.2715
     92  CB         9.8010   -4.1110    9.8380 C.3   392  TYR392      0.0574
     93  CG        10.9280   -4.7780    9.0790 C.ar  392  TYR392     -0.0198
     94  CD1       10.8590   -4.9600    7.6980 C.ar  392  TYR392     -0.0009
     95  CD2       12.0630   -5.2380    9.7460 C.ar  392  TYR392     -0.0009
     96  CE1       11.8960   -5.5870    7.0000 C.ar  392  TYR392      0.0417
     97  CE2       13.1010   -5.8630    9.0620 C.ar  392  TYR392      0.0417
     98  CZ        13.0120   -6.0350    7.6910 C.ar  392  TYR392      0.1957
     99  OH        14.0410   -6.6580    7.0170 O.3   392  TYR392     -0.2866
    100  N          6.6180   -4.3650   11.4210 N.am  393  THR393     -0.1937
    101  CA         5.9410   -3.8660   12.6180 C.3   393  THR393      0.2028
    102  C          5.2850   -4.9800   13.4230 C.2   393  THR393      0.2642
    103  O          5.1680   -4.8850   14.6460 O.2   393  THR393     -0.2714
    104  CB         4.8370   -2.8470   12.2850 C.3   393  THR393      0.1808
    105  OG1        3.7360   -3.5220   11.6650 O.3   393  THR393     -0.2208
    106  CG2        5.3630   -1.7730   11.3540 C.3   393  THR393      0.0379
    107  N          4.8540   -6.0290   12.7280 N.am  394  GLY394     -0.1954
    108  CA         4.1840   -7.1350   13.3850 C.3   394  GLY394      0.1869
    109  C          2.7000   -6.8430   13.5310 C.2   394  GLY394      0.2309
    110  O          1.9600   -7.6160   14.1400 O.2   394  GLY394     -0.2863
    111  N          1.7470  -11.2550   13.0480 N.3   398  GLY398     -0.1210
    112  CA         2.8330  -12.2170   13.0680 C.3   398  GLY398      0.1956
    113  C          3.8980  -11.9860   12.0160 C.2   398  GLY398      0.2611
    114  O          3.9790  -10.9120   11.4170 O.2   398  GLY398     -0.2717
    115  N          4.7190  -13.0070   11.7950 N.am  399  TRP399     -0.1976
    116  CA         5.7990  -12.9430   10.8200 C.3   399  TRP399      0.1640
    117  C          5.2260  -13.0800    9.4140 C.2   399  TRP399      0.2290
    118  O          4.6340  -14.1050    9.0710 O.2   399  TRP399     -0.2864
    119  CB         6.8080  -14.0610   11.0990 C.3   399  TRP399      0.0576
    120  CG         8.0710  -13.9740   10.2980 C.ar  399  TRP399      0.0006
    121  CD1        8.2220  -14.2440    8.9680 C.ar  399  TRP399      0.0946
    122  CD2        9.3650  -13.5900   10.7790 C.ar  399  TRP399      0.0152
    123  NE1        9.5300  -14.0530    8.5910 N.ar  399  TRP399     -0.2442
    124  CE2       10.2530  -13.6500    9.6830 C.ar  399  TRP399      0.0810
    125  CE3        9.8590  -13.1980   12.0310 C.ar  399  TRP399      0.0012
    126  CZ2       11.6120  -13.3360    9.8010 C.ar  399  TRP399      0.0191
    127  CZ3       11.2110  -12.8850   12.1480 C.ar  399  TRP399      0.0001
    128  CH2       12.0710  -12.9560   11.0370 C.ar  399  TRP399      0.0015
    129  N         17.1870   -6.9380    9.7570 N.3   435  GLY435     -0.1225
    130  CA        17.4160   -7.0160   11.1880 C.3   435  GLY435      0.1811
    131  C         16.1610   -7.4380   11.9230 C.2   435  GLY435      0.2280
    132  O         16.2610   -8.2340   12.8800 O.2   435  GLY435     -0.2866
@<TRIPOS>BOND
     1    69    70    1
     2    70    71    1
     3    70    73    1
     4    72    71    2
     5    71    79   am
     6    73    74    1
     7    79    80    1
     8    96    98   ar
     9    96    94   ar
    10    99    98    1
    11    80    83    1
    12    80    81    1
    13    74    75   ar
    14    74    76   ar
    15    83    84    1
    16    98    97   ar
    17    94    93   ar
    18    75    77   ar
    19    84    85    1
    20   123   121   ar
    21   123   124   ar
    22    76    78   ar
    23    81    88   am
    24    81    82    2
    25    88    89    1
    26   121   120   ar
    27    97    95   ar
    28   118   117    2
    29    93    95   ar
    30    93    92    1
    31    77    78   ar
    32    85    87   ar
    33    85    86   ar
    34   117   116    1
    35   124   126   ar
    36   124   122   ar
    37   129   130    1
    38   126   128   ar
    39    92    89    1
    40    89    90    1
    41   120   122   ar
    42   120   119    1
    43   122   125   ar
    44   116   119    1
    45   116   115    1
    46   128   127   ar
    47   130   131    1
    48    68    67   ar
    49    68    66   ar
    50   106   104    1
    51   114   113    2
    52    67    65   ar
    53   100    90   am
    54   100   101    1
    55    90    91    2
    56   105   104    1
    57   115   113   am
    58   131   132    2
    59   113   112    1
    60   125   127   ar
    61   104   101    1
    62    66    64   ar
    63    65    62   ar
    64   101   102    1
    65    58    57    2
    66   107   108    1
    67   107   102   am
    68   111   112    1
    69   108   109    1
    70    57    56    1
    71   102   103    2
    72    64    62   ar
    73    64    63   ar
    74   109   110    2
    75    62    60   ar
    76    54    52   am
    77    63    61   ar
    78    53    52    2
    79    50    49    2
    80    60    59    1
    81    60    61   ar
    82    56    59    1
    83    56    55    1
    84    52    51    1
    85    49    48    1
    86    13    12    2
    87    12    11    1
    88    14    11    1
    89    14    15    1
    90    51    48    1
    91    11    10    1
    92    15    16   ar
    93    15    17   ar
    94    48    47    1
    95    16    18   ar
    96    17    19   ar
    97    18    20   ar
    98    19    20   ar
    99    20    21    1
   100    10     3   am
   101    42    41    2
   102    47    41   am
   103     4     3    2
   104    41    40    1
   105     3     2    1
   106    34    33    2
   107    39    40    1
   108    40    43    1
   109     2     1    1
   110     2     5    1
   111    33    32    1
   112     6     5    1
   113     6     7    1
   114    45    43    1
   115    43    44    1
   116     8     7    1
   117     8     9    1
   118    32    35    1
   119    32    31    1
   120    35    36    1
   121    44    46    1
   122    25    24    2
   123    36    37   ar
   124    36    38   ar
   125    24    23    1
   126    23    22    1
   127    23    26    1
   128    29    28   ar
   129    26    27    1
   130    28    30   ar
   131    28    27    1
