@<TRIPOS>MOLECULE
tmp/1mxgA04.pdb
 96 91 0 0 0
SMALL
GASTEIGER

@<TRIPOS>ATOM
      1  N         20.4190   32.7410   35.1900 N.3    68  PHE68      -0.1241
      2  CA        21.5470   32.0200   35.7580 C.3    68  PHE68       0.1605
      3  C         21.2840   31.2600   37.0530 C.2    68  PHE68       0.2264
      4  O         22.2180   30.8090   37.7180 O.2    68  PHE68      -0.2867
      5  CB        22.7320   32.9750   35.9170 C.3    68  PHE68       0.0534
      6  CG        23.2520   33.5040   34.6070 C.ar   68  PHE68      -0.0203
      7  CD1       22.5640   34.5000   33.9170 C.ar   68  PHE68      -0.0042
      8  CD2       24.4170   32.9850   34.0450 C.ar   68  PHE68      -0.0042
      9  CE1       23.0280   34.9700   32.6860 C.ar   68  PHE68      -0.0003
     10  CE2       24.8890   33.4480   32.8150 C.ar   68  PHE68      -0.0003
     11  CZ        24.1940   34.4410   32.1360 C.ar   68  PHE68      -0.0000
     12  N         19.3020   26.7530   42.3320 N.3    72  GLU72      -0.1231
     13  CA        20.2470   26.6970   43.4380 C.3    72  GLU72       0.1699
     14  C         20.2670   27.9510   44.3110 C.2    72  GLU72       0.2592
     15  O         21.0180   28.0170   45.2830 O.2    72  GLU72      -0.2718
     16  CB        21.6540   26.4040   42.9090 C.3    72  GLU72       0.0402
     17  CG        22.2600   27.5190   42.0780 C.3    72  GLU72       0.1161
     18  CD        23.6560   27.1860   41.5890 C.2    72  GLU72       0.3649
     19  OE1       24.3770   26.4530   42.3010 O.co2  72  GLU72      -0.2457
     20  OE2       24.0380   27.6670   40.5020 O.co2  72  GLU72      -0.2457
     21  N         19.4520   28.9430   43.9640 N.am   73  TYR73      -0.1976
     22  CA        19.3710   30.1780   44.7460 C.3    73  TYR73       0.1639
     23  C         17.9640   30.3310   45.3000 C.2    73  TYR73       0.2290
     24  O         16.9870   30.0200   44.6220 O.2    73  TYR73      -0.2864
     25  CB        19.6800   31.4010   43.8770 C.3    73  TYR73       0.0560
     26  CG        21.0980   31.4820   43.3720 C.ar   73  TYR73      -0.0198
     27  CD1       22.1260   31.9420   44.1920 C.ar   73  TYR73      -0.0009
     28  CD2       21.4120   31.1030   42.0690 C.ar   73  TYR73      -0.0009
     29  CE1       23.4360   32.0270   43.7230 C.ar   73  TYR73       0.0417
     30  CE2       22.7160   31.1810   41.5920 C.ar   73  TYR73       0.0417
     31  CZ        23.7210   31.6440   42.4220 C.ar   73  TYR73       0.1957
     32  OH        25.0100   31.7250   41.9460 O.3    73  TYR73      -0.2866
     33  N         19.7980   22.5980   40.5000 N.3    86  LYS86      -0.1245
     34  CA        20.8000   22.7110   39.4510 C.3    86  LYS86       0.1561
     35  C         21.6130   21.4260   39.4170 C.2    86  LYS86       0.2260
     36  O         21.9440   20.9070   38.3530 O.2    86  LYS86      -0.2867
     37  CB        21.7430   23.8830   39.7220 C.3    86  LYS86       0.0271
     38  CG        22.9180   23.9190   38.7530 C.3    86  LYS86       0.0035
     39  CD        24.0070   24.8740   39.1870 C.3    86  LYS86       0.0206
     40  CE        25.2100   24.7700   38.2580 C.3    86  LYS86       0.1093
     41  NZ        26.2080   25.8380   38.5300 N.3    86  LYS86      -0.1314
     42  N         21.5080   35.3940   41.2860 N.3   136  SER136     -0.1217
     43  CA        22.7480   34.9440   40.6600 C.3   136  SER136      0.1889
     44  C         23.7150   36.1040   40.4750 C.2   136  SER136      0.2288
     45  O         24.9230   35.9010   40.3380 O.2   136  SER136     -0.2866
     46  CB        22.4660   34.3250   39.2910 C.3   136  SER136      0.2089
     47  OG        22.0530   35.3210   38.3670 O.3   136  SER136     -0.2183
     48  N         23.8720   37.7850   37.9450 N.3   138  LYS138     -0.1245
     49  CA        24.2320   37.8000   36.5320 C.3   138  LYS138      0.1561
     50  C         23.0750   38.2590   35.6520 C.2   138  LYS138      0.2260
     51  O         21.9250   37.9010   35.8820 O.2   138  LYS138     -0.2867
     52  CB        24.7070   36.4100   36.1010 C.3   138  LYS138      0.0271
     53  CG        25.9550   35.9560   36.8480 C.3   138  LYS138      0.0035
     54  CD        26.4400   34.5980   36.3810 C.3   138  LYS138      0.0206
     55  CE        27.6890   34.1850   37.1420 C.3   138  LYS138      0.1093
     56  NZ        28.7760   35.1880   36.9910 N.3   138  LYS138     -0.1314
     57  N         31.7820   34.7260   26.9510 N.3   180  ASN180     -0.1225
     58  CA        32.0180   33.4740   27.6580 C.3   180  ASN180      0.1785
     59  C         31.3620   33.4850   29.0330 C.2   180  ASN180      0.2597
     60  O         31.5020   32.5380   29.8020 O.2   180  ASN180     -0.2718
     61  CB        33.5210   33.2080   27.7950 C.3   180  ASN180      0.1169
     62  CG        34.1670   32.8610   26.4700 C.2   180  ASN180      0.2627
     63  OD1       33.6880   31.9870   25.7470 O.2   180  ASN180     -0.2716
     64  ND2       35.2630   33.5400   26.1450 N.am  180  ASN180     -0.0877
     65  N         30.6420   34.5630   29.3340 N.am  181  GLU181     -0.1979
     66  CA        29.9440   34.7040   30.6100 C.3   181  GLU181      0.1602
     67  C         28.4370   34.6640   30.3640 C.2   181  GLU181      0.2287
     68  O         27.6420   34.7940   31.2930 O.2   181  GLU181     -0.2864
     69  CB        30.2920   36.0470   31.2620 C.3   181  GLU181      0.0415
     70  CG        31.7610   36.2490   31.6080 C.3   181  GLU181      0.1163
     71  CD        32.2490   35.2850   32.6680 C.2   181  GLU181      0.3649
     72  OE1       31.4640   34.9690   33.5870 O.co2 181  GLU181     -0.2457
     73  OE2       33.4200   34.8540   32.5910 O.co2 181  GLU181     -0.2457
     74  N         26.7500   30.3660   27.0970 N.3   185  ALA185     -0.1231
     75  CA        27.9980   29.7940   27.5920 C.3   185  ALA185      0.1694
     76  C         27.7350   28.9280   28.8160 C.2   185  ALA185      0.2592
     77  O         28.2880   27.8380   28.9450 O.2   185  ALA185     -0.2718
     78  CB        28.9890   30.9050   27.9400 C.3   185  ALA185      0.0304
     79  N         26.8880   29.4170   29.7160 N.am  186  TYR186     -0.1976
     80  CA        26.5600   28.6720   30.9240 C.3   186  TYR186      0.1639
     81  C         25.8680   27.3530   30.5870 C.2   186  TYR186      0.2290
     82  O         26.2660   26.2940   31.0730 O.2   186  TYR186     -0.2864
     83  CB        25.6790   29.5350   31.8370 C.3   186  TYR186      0.0560
     84  CG        25.3210   28.9090   33.1720 C.ar  186  TYR186     -0.0198
     85  CD1       26.1820   28.0120   33.8080 C.ar  186  TYR186     -0.0009
     86  CD2       24.1390   29.2530   33.8230 C.ar  186  TYR186     -0.0009
     87  CE1       25.8690   27.4760   35.0600 C.ar  186  TYR186      0.0417
     88  CE2       23.8190   28.7270   35.0740 C.ar  186  TYR186      0.0417
     89  CZ        24.6870   27.8400   35.6860 C.ar  186  TYR186      0.1957
     90  OH        24.3690   27.3290   36.9260 O.3   186  TYR186     -0.2866
     91  N         28.3020   25.0490   29.1250 N.3   189  SER189     -0.1217
     92  CA        29.2700   24.5960   30.1230 C.3   189  SER189      0.1889
     93  C         28.7750   23.4330   30.9810 C.2   189  SER189      0.2288
     94  O         29.5850   22.6290   31.4520 O.2   189  SER189     -0.2866
     95  CB        29.7030   25.7570   31.0300 C.3   189  SER189      0.2089
     96  OG        28.7450   26.0280   32.0350 O.3   189  SER189     -0.2183
@<TRIPOS>BOND
     1    63    62    2
     2    64    62   am
     3    62    61    1
     4    57    58    1
     5    74    75    1
     6    75    78    1
     7    75    76    1
     8    58    61    1
     9    58    59    1
    10    76    77    2
    11    76    79   am
    12    59    65   am
    13    59    60    2
    14    91    92    1
    15    65    66    1
    16    79    80    1
    17    92    93    1
    18    92    95    1
    19    67    66    1
    20    67    68    2
    21    81    80    1
    22    81    82    2
    23    66    69    1
    24    80    83    1
    25    93    94    2
    26    95    96    1
    27    69    70    1
    28    70    71    1
    29    83    84    1
    30    11     9   ar
    31    11    10   ar
    32    73    71   ar
    33    71    72   ar
    34     9     7   ar
    35    10     8   ar
    36    84    85   ar
    37    84    86   ar
    38    85    87   ar
    39    86    88   ar
    40     7     6   ar
    41     8     6   ar
    42     6     5    1
    43    87    89   ar
    44    88    89   ar
    45     1     2    1
    46    50    51    2
    47    50    49    1
    48    89    90    1
    49     2     5    1
    50     2     3    1
    51    52    49    1
    52    52    53    1
    53    54    53    1
    54    54    55    1
    55    49    48    1
    56    56    55    1
    57     3     4    2
    58    40    41    1
    59    40    39    1
    60    36    35    2
    61    47    46    1
    62    38    39    1
    63    38    37    1
    64    46    43    1
    65    35    34    1
    66    34    37    1
    67    34    33    1
    68    45    44    2
    69    44    43    1
    70    20    18   ar
    71    43    42    1
    72    18    17    1
    73    18    19   ar
    74    30    28   ar
    75    30    31   ar
    76    32    31    1
    77    28    26   ar
    78    17    16    1
    79    12    13    1
    80    31    29   ar
    81    16    13    1
    82    26    25    1
    83    26    27   ar
    84    13    14    1
    85    29    27   ar
    86    25    22    1
    87    21    14   am
    88    21    22    1
    89    14    15    2
    90    24    23    2
    91    22    23    1
