@<TRIPOS>MOLECULE
tmp/1mxgA00.pdb
 158 152 0 0 0
SMALL
GASTEIGER

@<TRIPOS>ATOM
      1  N         21.6920   12.6740   16.9600 N.3     6  LEU6       -0.1231
      2  CA        20.8690   13.8630   16.7470 C.3     6  LEU6        0.1693
      3  C         21.2380   14.5730   15.4450 C.2     6  LEU6        0.2592
      4  O         20.3660   14.9240   14.6470 O.2     6  LEU6       -0.2718
      5  CB        21.0500   14.8330   17.9200 C.3     6  LEU6        0.0284
      6  CG        20.4350   16.2310   17.7820 C.3     6  LEU6        0.0019
      7  CD1       18.9140   16.1410   17.7050 C.3     6  LEU6        0.0001
      8  CD2       20.8540   17.0820   18.9670 C.3     6  LEU6        0.0001
      9  N         22.5360   14.7790   15.2390 N.am    7  GLU7       -0.1966
     10  CA        23.0290   15.4590   14.0460 C.3     7  GLU7        0.1733
     11  C         22.8430   14.6400   12.7710 C.2     7  GLU7        0.2616
     12  O         23.0660   15.1480   11.6710 O.2     7  GLU7       -0.2715
     13  CB        24.5130   15.8070   14.2110 C.3     7  GLU7        0.0429
     14  CG        25.4040   14.5930   14.4190 C.3     7  GLU7        0.1163
     15  CD        25.6640   14.2900   15.8840 C.2     7  GLU7        0.3649
     16  OE1       24.7780   14.5570   16.7260 O.co2   7  GLU7       -0.2457
     17  OE2       26.7600   13.7710   16.1910 O.co2   7  GLU7       -0.2457
     18  N         22.4440   13.3790   12.9180 N.am    8  GLU8       -0.1963
     19  CA        22.2160   12.5020   11.7700 C.3     8  GLU8        0.1733
     20  C         20.7240   12.3600   11.4920 C.2     8  GLU8        0.2616
     21  O         20.3100   11.5180   10.6910 O.2     8  GLU8       -0.2715
     22  CB        22.7980   11.1090   12.0210 C.3     8  GLU8        0.0429
     23  CG        24.3060   11.0690   12.1840 C.3     8  GLU8        0.1163
     24  CD        24.8150    9.6590   12.4190 C.2     8  GLU8        0.3649
     25  OE1       24.3190    8.9960   13.3560 O.co2   8  GLU8       -0.2457
     26  OE2       25.7100    9.2120   11.6680 O.co2   8  GLU8       -0.2457
     27  N         19.9200   13.1770   12.1640 N.am    9  GLY9       -0.1955
     28  CA        18.4800   13.1240   11.9730 C.3     9  GLY9        0.1869
     29  C         17.7720   12.1740   12.9240 C.2     9  GLY9        0.2309
     30  O         16.6180   11.8040   12.6950 O.2     9  GLY9       -0.2863
     31  N         23.1060   21.7160   17.2780 N.3   218  TRP218     -0.1241
     32  CA        21.8100   21.4980   16.6470 C.3   218  TRP218      0.1605
     33  C         20.8490   22.5610   17.1760 C.2   218  TRP218      0.2264
     34  O         20.9010   22.9180   18.3540 O.2   218  TRP218     -0.2867
     35  CB        21.3080   20.1060   17.0290 C.3   218  TRP218      0.0550
     36  CG        20.0260   19.6960   16.3940 C.ar  218  TRP218      0.0003
     37  CD1       19.8760   18.9410   15.2680 C.ar  218  TRP218      0.0946
     38  CD2       18.7050   19.9880   16.8630 C.ar  218  TRP218      0.0152
     39  NE1       18.5420   18.7380   15.0070 N.ar  218  TRP218     -0.2442
     40  CE2       17.8010   19.3700   15.9710 C.ar  218  TRP218      0.0810
     41  CE3       18.1970   20.7100   17.9530 C.ar  218  TRP218      0.0012
     42  CZ2       16.4130   19.4520   16.1340 C.ar  218  TRP218      0.0191
     43  CZ3       16.8190   20.7920   18.1170 C.ar  218  TRP218      0.0001
     44  CH2       15.9410   20.1650   17.2090 C.ar  218  TRP218      0.0015
     45  N         16.6540   25.0470   12.3520 N.3   241  LYS241     -0.1245
     46  CA        15.5280   24.2910   11.8210 C.3   241  LYS241      0.1561
     47  C         14.2640   24.9420   12.3680 C.2   241  LYS241      0.2260
     48  O         14.3370   25.8740   13.1730 O.2   241  LYS241     -0.2867
     49  CB        15.5790   22.8340   12.2940 C.3   241  LYS241      0.0271
     50  CG        16.7810   22.0510   11.8030 C.3   241  LYS241      0.0035
     51  CD        16.5280   20.5540   11.9450 C.3   241  LYS241      0.0206
     52  CE        17.6940   19.7430   11.4240 C.3   241  LYS241      0.1093
     53  NZ        17.3220   18.3080   11.2120 N.3   241  LYS241     -0.1314
     54  N         13.4070   18.9530    3.8090 N.3   278  PRO278     -0.2102
     55  CA        13.3700   17.9580    4.8830 C.3   278  PRO278      0.1504
     56  C         14.5430   18.0340    5.8510 C.2   278  PRO278      0.2575
     57  O         14.5690   17.3320    6.8610 O.2   278  PRO278     -0.2718
     58  CB        13.3220   16.6370    4.1220 C.3   278  PRO278      0.0282
     59  CG        14.1530   16.9340    2.9020 C.3   278  PRO278      0.0208
     60  CD        13.6710   18.3140    2.5050 C.3   278  PRO278      0.0893
     61  N         15.5120   18.8870    5.5380 N.am  279  PHE279     -0.1977
     62  CA        16.6840   19.0560    6.3870 C.3   279  PHE279      0.1639
     63  C         16.4550   20.2030    7.3640 C.2   279  PHE279      0.2290
     64  O         17.2520   20.4240    8.2770 O.2   279  PHE279     -0.2864
     65  CB        17.9130   19.3170    5.5080 C.3   279  PHE279      0.0560
     66  CG        18.1790   18.2150    4.5240 C.ar  279  PHE279     -0.0200
     67  CD1       18.7270   17.0080    4.9450 C.ar  279  PHE279     -0.0042
     68  CD2       17.8190   18.3570    3.1880 C.ar  279  PHE279     -0.0042
     69  CE1       18.9120   15.9560    4.0490 C.ar  279  PHE279     -0.0003
     70  CE2       17.9990   17.3120    2.2860 C.ar  279  PHE279     -0.0003
     71  CZ        18.5460   16.1090    2.7180 C.ar  279  PHE279     -0.0000
     72  N         10.0990   11.6430    5.5710 N.3   307  GLU307     -0.1231
     73  CA        11.2800   12.4920    5.6900 C.3   307  GLU307      0.1699
     74  C         11.1570   13.4810    6.8500 C.2   307  GLU307      0.2593
     75  O         10.0910   13.6090    7.4550 O.2   307  GLU307     -0.2718
     76  CB        11.4900   13.2460    4.3760 C.3   307  GLU307      0.0402
     77  CG        11.7510   12.3150    3.1970 C.3   307  GLU307      0.1161
     78  CD        11.7780   13.0380    1.8650 C.2   307  GLU307      0.3649
     79  OE1       12.4550   14.0830    1.7620 O.co2 307  GLU307     -0.2457
     80  OE2       11.1250   12.5540    0.9170 O.co2 307  GLU307     -0.2457
     81  N         12.2550   14.1750    7.1490 N.am  308  GLY308     -0.1942
     82  CA        12.2700   15.1420    8.2370 C.3   308  GLY308      0.2014
     83  C         12.8970   14.5600    9.4950 C.2   308  GLY308      0.2638
     84  O         13.3790   13.4310    9.4820 O.2   308  GLY308     -0.2714
     85  N         12.9060   15.3310   10.5800 N.am  309  GLN309     -0.1977
     86  CA        13.4620   14.8510   11.8500 C.3   309  GLN309      0.1601
     87  C         12.3300   14.8790   12.8680 C.2   309  GLN309      0.2287
     88  O         11.8860   15.9460   13.2920 O.2   309  GLN309     -0.2864
     89  CB        14.6200   15.7320   12.3150 C.3   309  GLN309      0.0394
     90  CG        15.1650   15.3200   13.6810 C.3   309  GLN309      0.0908
     91  CD        16.5700   15.8190   13.9190 C.2   309  GLN309      0.2608
     92  OE1       16.9150   16.9360   13.5410 O.2   309  GLN309     -0.2717
     93  NE2       17.3900   14.9940   14.5600 N.am  309  GLN309     -0.0878
     94  N         12.6580    3.8700   11.6710 N.3   333  HIS333     -0.1241
     95  CA        13.1420    5.1680   11.2170 C.3   333  HIS333      0.1621
     96  C         14.6520    5.1950   11.0050 C.2   333  HIS333      0.2264
     97  O         15.1400    5.6550    9.9690 O.2   333  HIS333     -0.2867
     98  CB        12.7630    6.2700   12.2150 C.3   333  HIS333      0.0745
     99  CG        13.3130    7.6130   11.8510 C.ar  333  HIS333      0.0817
    100  ND1       14.5680    8.0350   12.2380 N.ar  333  HIS333     -0.2268
    101  CD2       12.8140    8.5930   11.0600 C.ar  333  HIS333      0.1154
    102  CE1       14.8200    9.2140   11.6980 C.ar  333  HIS333      0.1986
    103  NE2       13.7720    9.5740   10.9780 N.ar  333  HIS333     -0.2212
    104  N         14.0230    3.8820    7.0650 N.3   337  ALA337     -0.1245
    105  CA        13.5080    5.1280    6.4970 C.3   337  ALA337      0.1562
    106  C         14.5330    6.1080    5.9420 C.2   337  ALA337      0.2260
    107  O         14.8870    7.0910    6.5940 O.2   337  ALA337     -0.2867
    108  CB        12.6260    5.8340    7.5330 C.3   337  ALA337      0.0290
    109  N         16.2450    8.0450    2.0990 N.3   339  GLY339     -0.1210
    110  CA        16.0690    8.3660    0.6930 C.3   339  GLY339      0.1956
    111  C         14.8640    9.2200    0.3530 C.2   339  GLY339      0.2612
    112  O         14.1400    9.6900    1.2350 O.2   339  GLY339     -0.2717
    113  N         14.6590    9.4280   -0.9440 N.am  340  SER340     -0.1952
    114  CA        13.5360   10.2170   -1.4280 C.3   340  SER340      0.1924
    115  C         12.2440    9.4370   -1.2200 C.2   340  SER340      0.2314
    116  O         12.2740    8.2690   -0.8300 O.2   340  SER340     -0.2863
    117  CB        13.7230   10.5410   -2.9100 C.3   340  SER340      0.2116
    118  OG        13.8570    9.3520   -3.6670 O.3   340  SER340     -0.2180
    119  N         10.0920    4.7510    0.4660 N.3   355  ARG355     -0.1245
    120  CA        11.2910    5.5160    0.7740 C.3   355  ARG355      0.1563
    121  C         12.3090    4.7600   -0.0730 C.2   355  ARG355      0.2260
    122  O         12.5030    3.5590    0.1060 O.2   355  ARG355     -0.2867
    123  CB        11.6430    5.4360    2.2640 C.3   355  ARG355      0.0307
    124  CG        10.6850    6.2130    3.1660 C.3   355  ARG355      0.0489
    125  CD        10.5800    7.6880    2.7550 C.3   355  ARG355      0.2205
    126  NE        11.8520    8.4090    2.8300 N.pl3 355  ARG355     -0.0865
    127  CZ        12.4540    8.7650    3.9600 C.cat 355  ARG355      0.5346
    128  NH1       11.9060    8.4700    5.1340 N.pl3 355  ARG355      0.1354
    129  NH2       13.6040    9.4280    3.9180 N.pl3 355  ARG355      0.1354
    130  N         15.5510    4.7750   -0.1610 N.3   357  GLY357     -0.1210
    131  CA        16.8260    4.4200    0.4370 C.3   357  GLY357      0.1956
    132  C         17.9870    5.3800    0.2650 C.2   357  GLY357      0.2612
    133  O         18.0220    6.1770   -0.6720 O.2   357  GLY357     -0.2717
    134  N         18.9320    5.3120    1.2000 N.am  358  ASP358     -0.1959
    135  CA        20.1310    6.1380    1.1480 C.3   358  ASP358      0.1840
    136  C         21.3490    5.2420    1.3720 C.2   358  ASP358      0.2622
    137  O         21.2510    4.0210    1.2530 O.2   358  ASP358     -0.2715
    138  CB        20.0890    7.2760    2.1840 C.3   358  ASP358      0.1450
    139  CG        19.8740    6.7870    3.6030 C.2   358  ASP358      0.3671
    140  OD1       20.4300    5.7340    3.9740 O.co2 358  ASP358     -0.2456
    141  OD2       19.1610    7.4800    4.3610 O.co2 358  ASP358     -0.2456
    142  N         22.4890    5.8360    1.7030 N.am  359  SER359     -0.1950
    143  CA        23.7090    5.0580    1.8990 C.3   359  SER359      0.1924
    144  C         23.7060    4.0920    3.0820 C.2   359  SER359      0.2314
    145  O         24.4890    3.1420    3.1030 O.2   359  SER359     -0.2863
    146  CB        24.9120    5.9990    2.0190 C.3   359  SER359      0.2116
    147  OG        24.8020    6.8350    3.1570 O.3   359  SER359     -0.2180
    148  N         20.3910    3.2610    4.8870 N.3   361  ARG361     -0.1245
    149  CA        19.0650    2.6670    5.0370 C.3   361  ARG361      0.1563
    150  C         18.5420    2.2590    3.6620 C.2   361  ARG361      0.2260
    151  O         18.4220    3.0900    2.7650 O.2   361  ARG361     -0.2867
    152  CB        18.1310    3.6780    5.7050 C.3   361  ARG361      0.0307
    153  CG        18.5790    4.0490    7.1140 C.3   361  ARG361      0.0489
    154  CD        17.7660    5.1930    7.6960 C.3   361  ARG361      0.2205
    155  NE        18.0740    6.4740    7.0640 N.pl3 361  ARG361     -0.0865
    156  CZ        17.6760    7.6490    7.5410 C.cat 361  ARG361      0.5346
    157  NH1       16.9540    7.6990    8.6530 N.pl3 361  ARG361      0.1354
    158  NH2       18.0070    8.7720    6.9130 N.pl3 361  ARG361      0.1354
@<TRIPOS>BOND
     1   118   117    1
     2   117   114    1
     3   114   115    1
     4   114   113    1
     5   115   116    2
     6   113   111   am
     7   133   132    2
     8   130   131    1
     9   121   122    2
    10   121   120    1
    11   132   131    1
    12   132   134   am
    13   111   110    1
    14   111   112    2
    15   119   120    1
    16   110   109    1
    17   120   123    1
    18    80    78   ar
    19   135   134    1
    20   135   136    1
    21   135   138    1
    22   137   136    2
    23   136   142   am
    24   142   143    1
    25    79    78   ar
    26    78    77    1
    27   143   146    1
    28   143   144    1
    29   146   147    1
    30   138   139    1
    31   123   124    1
    32    70    71   ar
    33    70    68   ar
    34    60    59    1
    35    60    54    1
    36    71    69   ar
    37   125   126    1
    38   125   124    1
    39   151   150    2
    40   126   127    2
    41    59    58    1
    42   144   145    2
    43    68    66   ar
    44    77    76    1
    45   139   140   ar
    46   139   141   ar
    47   150   149    1
    48    54    55    1
    49   129   127    1
    50   127   128    1
    51    69    67   ar
    52    58    55    1
    53    76    73    1
    54    66    67   ar
    55    66    65    1
    56    55    56    1
    57   148   149    1
    58   149   152    1
    59    65    62    1
    60    61    56   am
    61    61    62    1
    62    72    73    1
    63    73    74    1
    64   152   153    1
    65    56    57    2
    66   106   105    1
    67   106   107    2
    68    62    63    1
    69   105   104    1
    70   105   108    1
    71    74    81   am
    72    74    75    2
    73   158   156    1
    74   155   156    2
    75   155   154    1
    76   153   154    1
    77    81    82    1
    78    63    64    2
    79   156   157    1
    80    82    83    1
    81    84    83    2
    82    83    85   am
    83    97    96    2
    84    85    86    1
    85    21    20    2
    86   103   101   ar
    87   103   102   ar
    88    96    95    1
    89   101    99   ar
    90    53    52    1
    91    95    94    1
    92    95    98    1
    93    52    51    1
    94    20    19    1
    95    20    27   am
    96    26    24   ar
    97    12    11    2
    98   102   100   ar
    99    19    22    1
   100    19    18    1
   101    50    51    1
   102    50    49    1
   103    46    49    1
   104    46    45    1
   105    46    47    1
   106    86    89    1
   107    86    87    1
   108    99    98    1
   109    99   100   ar
   110    28    27    1
   111    28    29    1
   112    22    23    1
   113    23    24    1
   114    89    90    1
   115    47    48    2
   116    24    25   ar
   117    30    29    2
   118    11    18   am
   119    11    10    1
   120    87    88    2
   121    92    91    2
   122    90    91    1
   123    91    93   am
   124    10    13    1
   125    10     9    1
   126    13    14    1
   127    14    15    1
   128     4     3    2
   129    39    37   ar
   130    39    40   ar
   131     9     3   am
   132    37    36   ar
   133     3     2    1
   134    15    17   ar
   135    15    16   ar
   136    40    42   ar
   137    40    38   ar
   138    42    44   ar
   139    36    38   ar
   140    36    35    1
   141    32    35    1
   142    32    33    1
   143    32    31    1
   144     2     1    1
   145     2     5    1
   146    38    41   ar
   147    33    34    2
   148    44    43   ar
   149     7     6    1
   150     6     5    1
   151     6     8    1
   152    41    43   ar
