@<TRIPOS>MOLECULE
tmp/1mxgA01.pdb
 123 120 0 0 0
SMALL
GASTEIGER

@<TRIPOS>ATOM
      1  N          9.6780   49.6570   38.5430 N.3   118  GLU118     -0.1245
      2  CA        10.5710   50.8090   38.4750 C.3   118  GLU118      0.1567
      3  C         10.0030   51.8210   37.4880 C.2   118  GLU118      0.2260
      4  O          9.2570   51.4590   36.5780 O.2   118  GLU118     -0.2867
      5  CB        11.9720   50.3900   38.0130 C.3   118  GLU118      0.0388
      6  CG        12.0460   50.0210   36.5430 C.3   118  GLU118      0.1160
      7  CD        13.4450   49.6500   36.0970 C.2   118  GLU118      0.3649
      8  OE1       14.4090   49.8920   36.8550 O.co2 118  GLU118     -0.2457
      9  OE2       13.5770   49.1210   34.9760 O.co2 118  GLU118     -0.2457
     10  N         10.6700   55.8550   29.2050 N.3   122  PHE122     -0.1241
     11  CA        10.2690   55.6650   27.8120 C.3   122  PHE122      0.1605
     12  C          8.7700   55.4140   27.6970 C.2   122  PHE122      0.2264
     13  O          8.1570   55.7000   26.6670 O.2   122  PHE122     -0.2867
     14  CB        11.0250   54.4890   27.1890 C.3   122  PHE122      0.0534
     15  CG        12.5040   54.7060   27.0860 C.ar  122  PHE122     -0.0203
     16  CD1       13.0150   55.7540   26.3270 C.ar  122  PHE122     -0.0042
     17  CD2       13.3890   53.8590   27.7450 C.ar  122  PHE122     -0.0042
     18  CE1       14.3900   55.9560   26.2260 C.ar  122  PHE122     -0.0003
     19  CE2       14.7650   54.0520   27.6510 C.ar  122  PHE122     -0.0003
     20  CZ        15.2660   55.1010   26.8900 C.ar  122  PHE122     -0.0000
     21  N         12.6840   45.9570   36.4820 N.3   130  ASP130     -0.1239
     22  CA        13.8350   45.9980   37.3810 C.3   130  ASP130      0.1674
     23  C         14.3210   44.6020   37.7680 C.2   130  ASP130      0.2266
     24  O         13.7490   43.9590   38.6430 O.2   130  ASP130     -0.2867
     25  CB        13.4790   46.7990   38.6430 C.3   130  ASP130      0.1410
     26  CG        14.5860   46.7870   39.6860 C.2   130  ASP130      0.3668
     27  OD1       15.7230   46.3840   39.3640 O.co2 130  ASP130     -0.2456
     28  OD2       14.3150   47.1960   40.8360 O.co2 130  ASP130     -0.2456
     29  N         17.4340   44.0760   38.8600 N.3   132  SER132     -0.1217
     30  CA        18.6700   44.3400   39.5880 C.3   132  SER132      0.1889
     31  C         18.9170   43.3900   40.7550 C.2   132  SER132      0.2288
     32  O         20.0570   43.2460   41.2040 O.2   132  SER132     -0.2866
     33  CB        18.6660   45.7780   40.1180 C.3   132  SER132      0.2089
     34  OG        17.6930   45.9420   41.1370 O.3   132  SER132     -0.2183
     35  N         21.6860   41.3980   35.1550 N.3   140  THR140     -0.1203
     36  CA        20.6960   42.2620   35.7690 C.3   140  THR140      0.1994
     37  C         20.1620   43.0260   34.5590 C.2   140  THR140      0.2618
     38  O         20.7330   42.9420   33.4730 O.2   140  THR140     -0.2717
     39  CB        21.3360   43.2660   36.7480 C.3   140  THR140      0.1784
     40  OG1       22.4220   43.9450   36.1010 O.3   140  THR140     -0.2211
     41  CG2       21.8460   42.5550   37.9810 C.3   140  THR140      0.0376
     42  N         19.0690   43.7570   34.7320 N.am  141  ALA141     -0.1965
     43  CA        18.5060   44.5170   33.6260 C.3   141  ALA141      0.1728
     44  C         17.5570   45.5780   34.1600 C.2   141  ALA141      0.2616
     45  O         17.1860   45.5500   35.3330 O.2   141  ALA141     -0.2715
     46  CB        17.7540   43.5780   32.6750 C.3   141  ALA141      0.0334
     47  N         17.2010   46.5280   33.3010 N.am  142  ASN142     -0.1958
     48  CA        16.2410   47.5690   33.6500 C.3   142  ASN142      0.1819
     49  C         15.5080   47.9930   32.3860 C.2   142  ASN142      0.2621
     50  O         15.6280   47.3290   31.3560 O.2   142  ASN142     -0.2715
     51  CB        16.9060   48.7610   34.3800 C.3   142  ASN142      0.1195
     52  CG        17.9410   49.5010   33.5460 C.2   142  ASN142      0.2630
     53  OD1       18.7600   50.2470   34.1010 O.2   142  ASN142     -0.2716
     54  ND2       17.9090   49.3260   32.2360 N.am  142  ASN142     -0.0877
     55  N         14.7450   49.0780   32.4530 N.am  143  TYR143     -0.1960
     56  CA        13.9730   49.5260   31.2970 C.3   143  TYR143      0.1771
     57  C         14.7500   49.6870   29.9900 C.2   143  TYR143      0.2619
     58  O         14.1740   49.5820   28.9100 O.2   143  TYR143     -0.2715
     59  CB        13.2390   50.8290   31.6360 C.3   143  TYR143      0.0574
     60  CG        14.1450   51.9740   32.0140 C.ar  143  TYR143     -0.0198
     61  CD1       14.7440   52.7680   31.0370 C.ar  143  TYR143     -0.0009
     62  CD2       14.4140   52.2580   33.3510 C.ar  143  TYR143     -0.0009
     63  CE1       15.5920   53.8190   31.3850 C.ar  143  TYR143      0.0417
     64  CE2       15.2590   53.3040   33.7090 C.ar  143  TYR143      0.0417
     65  CZ        15.8440   54.0790   32.7220 C.ar  143  TYR143      0.1957
     66  OH        16.6850   55.1090   33.0770 O.3   143  TYR143     -0.2866
     67  N         16.0530   49.9300   30.0760 N.am  144  LEU144     -0.1963
     68  CA        16.8590   50.1010   28.8710 C.3   144  LEU144      0.1728
     69  C         16.9790   48.8110   28.0620 C.2   144  LEU144      0.2616
     70  O         17.3160   48.8410   26.8810 O.2   144  LEU144     -0.2715
     71  CB        18.2600   50.6020   29.2480 C.3   144  LEU144      0.0311
     72  CG        18.3160   52.0330   29.7930 C.3   144  LEU144      0.0022
     73  CD1       19.6280   52.2620   30.5250 C.3   144  LEU144      0.0001
     74  CD2       18.1500   53.0210   28.6490 C.3   144  LEU144      0.0001
     75  N         16.6820   47.6800   28.6950 N.am  145  ASP145     -0.1971
     76  CA        16.8050   46.3830   28.0330 C.3   145  ASP145      0.1709
     77  C         15.5200   45.8610   27.4130 C.2   145  ASP145      0.2293
     78  O         15.4860   44.7420   26.8970 O.2   145  ASP145     -0.2864
     79  CB        17.3330   45.3630   29.0330 C.3   145  ASP145      0.1436
     80  CG        18.6420   45.7870   29.6360 C.2   145  ASP145      0.3671
     81  OD1       19.6420   45.8260   28.8870 O.co2 145  ASP145     -0.2456
     82  OD2       18.6660   46.0950   30.8450 O.co2 145  ASP145     -0.2456
     83  N         15.1960   53.9140   23.6170 N.3   150  GLU150     -0.1245
     84  CA        15.7300   54.9620   22.7510 C.3   150  GLU150      0.1567
     85  C         16.0360   54.5300   21.3170 C.2   150  GLU150      0.2260
     86  O         16.1440   55.3760   20.4280 O.2   150  GLU150     -0.2867
     87  CB        16.9910   55.5800   23.3700 C.3   150  GLU150      0.0388
     88  CG        18.2660   54.7890   23.1260 C.3   150  GLU150      0.1160
     89  CD        18.4950   53.6820   24.1360 C.2   150  GLU150      0.3649
     90  OE1       17.5100   53.1320   24.6770 O.co2 150  GLU150     -0.2457
     91  OE2       19.6750   53.3540   24.3800 O.co2 150  GLU150     -0.2457
     92  N         20.4870   45.7680   22.1130 N.3   169  LYS169     -0.1231
     93  CA        21.3500   46.3630   23.1350 C.3   169  LYS169      0.1693
     94  C         22.5400   45.4350   23.3980 C.2   169  LYS169      0.2592
     95  O         22.3670   44.2370   23.6330 O.2   169  LYS169     -0.2718
     96  CB        20.5730   46.5980   24.4370 C.3   169  LYS169      0.0285
     97  CG        19.4830   47.6660   24.3460 C.3   169  LYS169      0.0035
     98  CD        20.0430   48.9890   23.8220 C.3   169  LYS169      0.0206
     99  CE        19.0020   50.1020   23.8560 C.3   169  LYS169      0.1093
    100  NZ        18.7090   50.5590   25.2480 N.3   169  LYS169     -0.1314
    101  N         23.7480   45.9900   23.3610 N.am  170  GLU170     -0.1966
    102  CA        24.9540   45.1930   23.5770 C.3   170  GLU170      0.1733
    103  C         24.9740   44.4580   24.9150 C.2   170  GLU170      0.2616
    104  O         25.5260   43.3630   25.0190 O.2   170  GLU170     -0.2715
    105  CB        26.2010   46.0720   23.4630 C.3   170  GLU170      0.0429
    106  CG        26.3830   46.7200   22.1030 C.3   170  GLU170      0.1163
    107  CD        27.7920   47.2430   21.8970 C.2   170  GLU170      0.3649
    108  OE1       28.2920   47.9740   22.7770 O.co2 170  GLU170     -0.2457
    109  OE2       28.3980   46.9210   20.8530 O.co2 170  GLU170     -0.2457
    110  N         24.3770   45.0590   25.9390 N.am  171  TRP171     -0.1974
    111  CA        24.3350   44.4450   27.2620 C.3   171  TRP171      0.1640
    112  C         23.5890   43.1170   27.2000 C.2   171  TRP171      0.2290
    113  O         24.0330   42.1080   27.7500 O.2   171  TRP171     -0.2864
    114  CB        23.6460   45.4010   28.2430 C.3   171  TRP171      0.0576
    115  CG        23.4180   44.8680   29.6340 C.ar  171  TRP171      0.0006
    116  CD1       22.3010   44.2340   30.0990 C.ar  171  TRP171      0.0946
    117  CD2       24.3010   44.9970   30.7550 C.ar  171  TRP171      0.0152
    118  NE1       22.4300   43.9700   31.4420 N.ar  171  TRP171     -0.2442
    119  CE2       23.6490   44.4270   31.8700 C.ar  171  TRP171      0.0810
    120  CE3       25.5820   45.5420   30.9250 C.ar  171  TRP171      0.0012
    121  CZ2       24.2330   44.3870   33.1430 C.ar  171  TRP171      0.0191
    122  CZ3       26.1630   45.5030   32.1920 C.ar  171  TRP171      0.0001
    123  CH2       25.4870   44.9290   33.2840 C.ar  171  TRP171      0.0015
@<TRIPOS>BOND
     1    86    85    2
     2   109   107   ar
     3    85    84    1
     4   107   106    1
     5   107   108   ar
     6   106   105    1
     7    92    93    1
     8    84    87    1
     9    84    83    1
    10    88    87    1
    11    88    89    1
    12    93    94    1
    13    93    96    1
    14   101    94   am
    15   101   102    1
    16    94    95    2
    17   105   102    1
    18   102   103    1
    19    98    99    1
    20    98    97    1
    21    99   100    1
    22    89    91   ar
    23    89    90   ar
    24    97    96    1
    25   103   104    2
    26   103   110   am
    27   110   111    1
    28    18    16   ar
    29    18    20   ar
    30    16    15   ar
    31    13    12    2
    32    70    69    2
    33    20    19   ar
    34    78    77    2
    35    15    14    1
    36    15    17   ar
    37    14    11    1
    38   112   111    1
    39   112   113    2
    40   111   114    1
    41    77    76    1
    42    19    17   ar
    43    12    11    1
    44    11    10    1
    45    76    75    1
    46    76    79    1
    47    69    75   am
    48    69    68    1
    49   114   115    1
    50    74    72    1
    51    68    71    1
    52    68    67    1
    53    81    80   ar
    54    58    57    2
    55    79    80    1
    56    71    72    1
    57   115   116   ar
    58   115   117   ar
    59    80    82   ar
    60    72    73    1
    61    57    67   am
    62    57    56    1
    63   116   118   ar
    64   117   120   ar
    65   117   119   ar
    66   120   122   ar
    67    61    63   ar
    68    61    60   ar
    69    56    59    1
    70    56    55    1
    71    50    49    2
    72    63    65   ar
    73   118   119   ar
    74    59    60    1
    75   119   121   ar
    76    60    62   ar
    77   122   123   ar
    78    54    52   am
    79    49    55   am
    80    49    48    1
    81    46    43    1
    82    65    66    1
    83    65    64   ar
    84   121   123   ar
    85    47    48    1
    86    47    44   am
    87    62    64   ar
    88    38    37    2
    89    52    53    2
    90    52    51    1
    91    43    44    1
    92    43    42    1
    93    48    51    1
    94    44    45    2
    95    37    42   am
    96    37    36    1
    97     9     7   ar
    98    35    36    1
    99    36    39    1
   100     7     6    1
   101     7     8   ar
   102    40    39    1
   103    21    22    1
   104     6     5    1
   105     4     3    2
   106    39    41    1
   107    22    23    1
   108    22    25    1
   109     3     2    1
   110    23    24    2
   111     5     2    1
   112     2     1    1
   113    25    26    1
   114    29    30    1
   115    27    26   ar
   116    30    33    1
   117    30    31    1
   118    26    28   ar
   119    33    34    1
   120    31    32    2
