@<TRIPOS>MOLECULE
tmp/1mxhB01.pdb
 172 166 0 0 0
SMALL
GASTEIGER

@<TRIPOS>ATOM
      1  N         14.1280    1.4330   -1.2350 N.3    12  ARG12      -0.1245
      2  CA        13.4150    2.6610   -0.8870 C.3    12  ARG12       0.1563
      3  C         13.1730    3.6480   -2.0470 C.2    12  ARG12       0.2260
      4  O         12.8280    3.2420   -3.1570 O.2    12  ARG12      -0.2867
      5  CB        14.1590    3.3470    0.2720 C.3    12  ARG12       0.0307
      6  CG        14.1360    2.5350    1.5720 C.3    12  ARG12       0.0489
      7  CD        15.3400    2.8190    2.4700 C.3    12  ARG12       0.2205
      8  NE        15.3200    4.1420    3.0950 N.pl3  12  ARG12      -0.0865
      9  CZ        14.6510    4.4400    4.2040 C.cat  12  ARG12       0.5346
     10  NH1       13.9400    3.5090    4.8230 N.pl3  12  ARG12       0.1354
     11  NH2       14.6940    5.6740    4.6950 N.pl3  12  ARG12       0.1354
     12  N         22.8340    8.5170   -0.9860 N.3    93  SER93      -0.1217
     13  CA        23.0920    9.4500    0.1090 C.3    93  SER93       0.1889
     14  C         23.4080    8.8490    1.4750 C.2    93  SER93       0.2288
     15  O         22.6530    8.0260    1.9990 O.2    93  SER93      -0.2866
     16  CB        21.8850   10.3870    0.2690 C.3    93  SER93       0.2089
     17  OG        21.8530   10.9680    1.5630 O.3    93  SER93      -0.2183
     18  N         23.6950    9.3160    5.4680 N.3    95  TYR95      -0.1227
     19  CA        22.9890   10.1800    6.4000 C.3    95  TYR95       0.1736
     20  C         23.1500    9.7270    7.8440 C.2    95  TYR95       0.2595
     21  O         22.6870    8.6570    8.2210 O.2    95  TYR95      -0.2718
     22  CB        21.5060   10.2190    6.0300 C.3    95  TYR95       0.0548
     23  CG        20.6230   10.9460    7.0180 C.ar   95  TYR95      -0.0200
     24  CD1       20.6700   12.3390    7.1380 C.ar   95  TYR95      -0.0009
     25  CD2       19.7320   10.2440    7.8300 C.ar   95  TYR95      -0.0009
     26  CE1       19.8550   13.0120    8.0330 C.ar   95  TYR95       0.0417
     27  CE2       18.9120   10.9090    8.7350 C.ar   95  TYR95       0.0417
     28  CZ        18.9830   12.2990    8.8290 C.ar   95  TYR95       0.1957
     29  OH        18.2080   12.9740    9.7360 O.3    95  TYR95      -0.2866
     30  N         23.8060   10.5570    8.6490 N.am   96  TYR96      -0.1963
     31  CA        24.0200   10.2640   10.0590 C.3    96  TYR96       0.1756
     32  C         24.6480   11.4790   10.7310 C.2    96  TYR96       0.2461
     33  O         25.2910   12.3000   10.0710 O.2    96  TYR96      -0.2730
     34  CB        24.9090    9.0210   10.2350 C.3    96  TYR96       0.0574
     35  CG        26.2260    9.0630    9.4870 C.ar   96  TYR96      -0.0198
     36  CD1       27.2690    9.8990    9.8980 C.ar   96  TYR96      -0.0009
     37  CD2       26.4350    8.2490    8.3710 C.ar   96  TYR96      -0.0009
     38  CE1       28.4970    9.9150    9.2100 C.ar   96  TYR96       0.0417
     39  CE2       27.6450    8.2560    7.6840 C.ar   96  TYR96       0.0417
     40  CZ        28.6720    9.0840    8.1040 C.ar   96  TYR96       0.1957
     41  OH        29.8690    9.0580    7.4220 O.3    96  TYR96      -0.2866
     42  N         24.4870   11.5960   12.0590 N.am   97  PRO97      -0.2727
     43  CA        25.0130   12.7040   12.8630 C.3    97  PRO97       0.1402
     44  C         26.5380   12.8690   12.9120 C.2    97  PRO97       0.2269
     45  O         27.2930   11.9110   12.7450 O.2    97  PRO97      -0.2865
     46  CB        24.4160   12.4320   14.2390 C.3    97  PRO97       0.0296
     47  CG        24.4250   10.9480   14.2960 C.3    97  PRO97       0.0237
     48  CD        23.8780   10.5740   12.9300 C.3    97  PRO97       0.0939
     49  N         16.8790   17.8780    0.2740 N.3   141  ASP141     -0.1239
     50  CA        16.2260   17.7560    1.5780 C.3   141  ASP141      0.1674
     51  C         15.5560   19.1010    1.9140 C.2   141  ASP141      0.2266
     52  O         16.2410   20.0880    2.1890 O.2   141  ASP141     -0.2867
     53  CB        17.2800   17.4250    2.6440 C.3   141  ASP141      0.1410
     54  CG        16.6700   17.1070    3.9900 C.2   141  ASP141      0.3668
     55  OD1       15.5550   17.6100    4.2590 O.co2 141  ASP141     -0.2456
     56  OD2       17.3050   16.3640    4.7830 O.co2 141  ASP141     -0.2456
     57  N         14.1820   20.1240    4.5040 N.3   143  MET143     -0.1245
     58  CA        14.3880   20.5640    5.8740 C.3   143  MET143      0.1570
     59  C         15.7900   21.0630    6.2270 C.2   143  MET143      0.2261
     60  O         16.0330   21.4630    7.3670 O.2   143  MET143     -0.2867
     61  CB        14.0020   19.4340    6.8310 C.3   143  MET143      0.0387
     62  CG        12.5660   18.9500    6.6900 C.3   143  MET143      0.0595
     63  SD        11.3680   20.2750    6.9370 S.3   143  MET143     -0.1393
     64  CE        11.4370   20.4690    8.7220 C.3   143  MET143      0.0692
     65  N         18.8830   20.0070   11.3190 N.3   148  LEU148     -0.1245
     66  CA        18.6210   19.0520   12.3900 C.3   148  LEU148      0.1561
     67  C         19.8700   19.0670   13.2860 C.2   148  LEU148      0.2260
     68  O         20.9830   18.8490   12.8110 O.2   148  LEU148     -0.2867
     69  CB        18.3880   17.6560   11.7990 C.3   148  LEU148      0.0270
     70  CG        17.9980   16.5230   12.7540 C.3   148  LEU148      0.0019
     71  CD1       16.7110   16.8890   13.4850 C.3   148  LEU148      0.0001
     72  CD2       17.8170   15.2260   11.9760 C.3   148  LEU148      0.0001
     73  N         23.5890   17.1740   12.7470 N.3   151  PHE151     -0.1241
     74  CA        23.8480   16.7050   11.3800 C.3   151  PHE151      0.1605
     75  C         24.5350   17.7310   10.4960 C.2   151  PHE151      0.2264
     76  O         24.3140   17.7950    9.2870 O.2   151  PHE151     -0.2867
     77  CB        22.5450   16.2530   10.7220 C.3   151  PHE151      0.0534
     78  CG        22.0140   14.9740   11.2790 C.ar  151  PHE151     -0.0203
     79  CD1       21.5120   14.9200   12.5730 C.ar  151  PHE151     -0.0042
     80  CD2       22.0370   13.8080   10.5130 C.ar  151  PHE151     -0.0042
     81  CE1       21.0360   13.7220   13.1040 C.ar  151  PHE151     -0.0003
     82  CE2       21.5630   12.6100   11.0310 C.ar  151  PHE151     -0.0003
     83  CZ        21.0600   12.5660   12.3300 C.ar  151  PHE151     -0.0000
     84  N         26.1860   16.4310    7.0680 N.3   154  TYR154     -0.1241
     85  CA        25.1170   16.0520    6.1580 C.3   154  TYR154      0.1605
     86  C         24.4710   17.3320    5.5950 C.2   154  TYR154      0.2264
     87  O         24.3360   17.4900    4.3760 O.2   154  TYR154     -0.2867
     88  CB        24.0740   15.2190    6.9110 C.3   154  TYR154      0.0534
     89  CG        22.7880   15.0240    6.1490 C.ar  154  TYR154     -0.0201
     90  CD1       22.7030   14.1160    5.0890 C.ar  154  TYR154     -0.0009
     91  CD2       21.6620   15.7890    6.4560 C.ar  154  TYR154     -0.0009
     92  CE1       21.5110   13.9780    4.3440 C.ar  154  TYR154      0.0417
     93  CE2       20.4750   15.6650    5.7330 C.ar  154  TYR154      0.0417
     94  CZ        20.4000   14.7630    4.6830 C.ar  154  TYR154      0.1957
     95  OH        19.2140   14.6490    4.0000 O.3   154  TYR154     -0.2866
     96  N         24.2220   18.5390    1.6180 N.3   158  LYS158     -0.1245
     97  CA        22.9710   18.7940    0.9250 C.3   158  LYS158      0.1561
     98  C         22.9710   20.2370    0.4030 C.2   158  LYS158      0.2260
     99  O         22.5640   20.4770   -0.7200 O.2   158  LYS158     -0.2867
    100  CB        21.7730   18.5550    1.8490 C.3   158  LYS158      0.0271
    101  CG        21.4270   17.0890    2.0680 C.3   158  LYS158      0.0035
    102  CD        21.2300   16.3660    0.7470 C.3   158  LYS158      0.0206
    103  CE        20.6630   14.9750    0.9630 C.3   158  LYS158      0.1093
    104  NZ        20.6070   14.1820   -0.2940 N.3   158  LYS158     -0.1314
    105  N         10.4500   16.0330    2.4210 N.3   185  GLY185     -0.1210
    106  CA        10.4530   16.5510    3.7760 C.3   185  GLY185      0.1956
    107  C         10.6630   15.3330    4.6510 C.2   185  GLY185      0.2612
    108  O         11.7940   14.9570    4.9520 O.2   185  GLY185     -0.2717
    109  N          9.5630   14.7170    5.0640 N.am  186  LEU186     -0.1965
    110  CA         9.6230   13.5000    5.8540 C.3   186  LEU186      0.1728
    111  C          9.1110   12.3980    4.9390 C.2   186  LEU186      0.2617
    112  O          7.9120   12.3310    4.6520 O.2   186  LEU186     -0.2715
    113  CB         8.7270   13.5790    7.0890 C.3   186  LEU186      0.0311
    114  CG         8.7390   12.2990    7.9440 C.3   186  LEU186      0.0022
    115  CD1       10.1320   12.0760    8.5410 C.3   186  LEU186      0.0001
    116  CD2        7.6940   12.4020    9.0480 C.3   186  LEU186      0.0001
    117  N         10.0240   11.5660    4.4480 N.am  187  SER187     -0.1936
    118  CA         9.6540   10.4450    3.5920 C.3   187  SER187      0.2055
    119  C          9.9500    9.1700    4.3930 C.2   187  SER187      0.2643
    120  O          9.9340    9.2020    5.6250 O.2   187  SER187     -0.2714
    121  CB        10.4570   10.4650    2.2910 C.3   187  SER187      0.2130
    122  OG        10.0250    9.4430    1.4120 O.3   187  SER187     -0.2179
    123  N         10.2300    8.0650    3.7080 N.am  188  LEU188     -0.1963
    124  CA        10.4910    6.7950    4.3930 C.3   188  LEU188      0.1728
    125  C         11.3860    6.8710    5.6340 C.2   188  LEU188      0.2616
    126  O         12.5390    7.3040    5.5690 O.2   188  LEU188     -0.2715
    127  CB        11.0770    5.7760    3.4140 C.3   188  LEU188      0.0311
    128  CG        10.1710    5.3680    2.2510 C.3   188  LEU188      0.0022
    129  CD1       10.8340    4.2180    1.4800 C.3   188  LEU188      0.0001
    130  CD2        8.7890    4.9490    2.7820 C.3   188  LEU188      0.0001
    131  N         10.8390    6.4340    6.7630 N.am  189  LEU189     -0.1964
    132  CA        11.5660    6.4310    8.0270 C.3   189  LEU189      0.1713
    133  C         12.5230    5.2430    8.1180 C.2   189  LEU189      0.2458
    134  O         12.3510    4.2400    7.4230 O.2   189  LEU189     -0.2730
    135  CB        10.5770    6.3750    9.1880 C.3   189  LEU189      0.0310
    136  CG         9.6030    7.5500    9.2430 C.3   189  LEU189      0.0022
    137  CD1        8.4980    7.2580   10.2490 C.3   189  LEU189      0.0001
    138  CD2       10.3640    8.8170    9.6020 C.3   189  LEU189      0.0001
    139  N         13.5580    5.3470    8.9690 N.am  190  PRO190     -0.2727
    140  CA        14.5240    4.2520    9.1230 C.3   190  PRO190      0.1402
    141  C         13.7870    2.9950    9.5840 C.2   190  PRO190      0.2269
    142  O         13.0260    3.0310   10.5550 O.2   190  PRO190     -0.2865
    143  CB        15.4820    4.7870   10.1810 C.3   190  PRO190      0.0296
    144  CG        15.4520    6.2730    9.9340 C.3   190  PRO190      0.0237
    145  CD        13.9730    6.5230    9.7520 C.3   190  PRO190      0.0939
    146  N         13.7020    2.2320   13.3090 N.3   193  MET193     -0.1245
    147  CA        13.0440    3.1540   14.2280 C.3   193  MET193      0.1570
    148  C         11.7460    2.5810   14.8000 C.2   193  MET193      0.2261
    149  O         10.8940    2.0910   14.0590 O.2   193  MET193     -0.2867
    150  CB        12.7530    4.4840   13.5220 C.3   193  MET193      0.0387
    151  CG        12.0060    5.4980   14.3790 C.3   193  MET193      0.0595
    152  SD        11.5760    7.0140   13.4740 S.3   193  MET193     -0.1393
    153  CE        13.1480    7.9060   13.5550 C.3   193  MET193      0.0692
    154  N          8.2650    6.0750   17.9210 N.3   197  THR197     -0.1218
    155  CA         9.0900    7.1660   17.4350 C.3   197  THR197      0.1862
    156  C          8.6590    7.5760   16.0330 C.2   197  THR197      0.2287
    157  O          8.6490    8.7600   15.7050 O.2   197  THR197     -0.2866
    158  CB        10.5780    6.7660   17.4020 C.3   197  THR197      0.1770
    159  OG1       10.9960    6.3610   18.7140 O.3   197  THR197     -0.2211
    160  CG2       11.4310    7.9360   16.9420 C.3   197  THR197      0.0375
    161  N          6.9930   11.3070   14.5610 N.3   201  TYR201     -0.1241
    162  CA         7.4740   12.0270   13.3850 C.3   201  TYR201      0.1605
    163  C          6.3330   12.3040   12.4090 C.2   201  TYR201      0.2264
    164  O          6.1540   13.4360   11.9630 O.2   201  TYR201     -0.2867
    165  CB         8.5660   11.2310   12.6640 C.3   201  TYR201      0.0534
    166  CG         9.9400   11.3490   13.2880 C.ar  201  TYR201     -0.0201
    167  CD1       10.1570   10.9860   14.6140 C.ar  201  TYR201     -0.0009
    168  CD2       11.0230   11.8320   12.5530 C.ar  201  TYR201     -0.0009
    169  CE1       11.4130   11.1000   15.1980 C.ar  201  TYR201      0.0417
    170  CE2       12.2900   11.9550   13.1310 C.ar  201  TYR201      0.0417
    171  CZ        12.4750   11.5880   14.4580 C.ar  201  TYR201      0.1957
    172  OH        13.7080   11.7330   15.0570 O.3   201  TYR201     -0.2866
@<TRIPOS>BOND
     1     4     3    2
     2     3     2    1
     3     1     2    1
     4    12    13    1
     5     2     5    1
     6    99    98    2
     7   104   103    1
     8    13    16    1
     9    13    14    1
    10    16    17    1
    11     5     6    1
    12    49    50    1
    13    98    97    1
    14   102   103    1
    15   102   101    1
    16    97    96    1
    17    97   100    1
    18   122   121    1
    19    14    15    2
    20   129   128    1
    21     6     7    1
    22    50    51    1
    23    50    53    1
    24   100   101    1
    25    51    52    2
    26   128   130    1
    27   128   127    1
    28   121   118    1
    29   105   106    1
    30     7     8    1
    31    53    54    1
    32     8     9    2
    33   127   124    1
    34   118   119    1
    35   118   117    1
    36   123   124    1
    37   123   119   am
    38   106   107    1
    39    54    55   ar
    40    54    56   ar
    41    95    94    1
    42     9    11    1
    43     9    10    1
    44    92    94   ar
    45    92    90   ar
    46    87    86    2
    47   124   125    1
    48   119   120    2
    49   117   111   am
    50    57    58    1
    51   107   108    2
    52   107   109   am
    53   112   111    2
    54    94    93   ar
    55   111   110    1
    56   109   110    1
    57    90    89   ar
    58    18    19    1
    59   126   125    2
    60    86    85    1
    61   125   131   am
    62    93    91   ar
    63   110   113    1
    64    58    59    1
    65    58    61    1
    66    22    19    1
    67    22    23    1
    68    89    91   ar
    69    89    88    1
    70    85    88    1
    71    85    84    1
    72    59    60    2
    73    19    20    1
    74    62    61    1
    75    62    63    1
    76   131   132    1
    77    63    64    1
    78    23    24   ar
    79    23    25   ar
    80   113   114    1
    81    24    26   ar
    82    41    40    1
    83   134   133    2
    84    39    40   ar
    85    39    37   ar
    86    25    27   ar
    87    20    21    2
    88    20    30   am
    89   114   115    1
    90   114   116    1
    91   132   133    1
    92   132   135    1
    93    26    28   ar
    94    40    38   ar
    95   133   139   am
    96    37    35   ar
    97    30    31    1
    98    27    28   ar
    99    28    29    1
   100   139   140    1
   101   139   145    1
   102   140   141    1
   103   140   143    1
   104   135   136    1
   105    38    36   ar
   106   136   138    1
   107   136   137    1
   108    76    75    2
   109    35    36   ar
   110    35    34    1
   111   141   142    2
   112   145   144    1
   113   144   143    1
   114    31    34    1
   115    31    32    1
   116    33    32    2
   117    75    74    1
   118    80    82   ar
   119    80    78   ar
   120    77    78    1
   121    77    74    1
   122    32    42   am
   123    82    83   ar
   124    78    79   ar
   125    65    66    1
   126    74    73    1
   127    69    66    1
   128    69    70    1
   129   164   163    2
   130    72    70    1
   131    42    43    1
   132    42    48    1
   133    83    81   ar
   134    66    67    1
   135   163   162    1
   136   168   170   ar
   137   168   166   ar
   138    79    81   ar
   139   165   166    1
   140   165   162    1
   141    45    44    2
   142    70    71    1
   143    68    67    2
   144    43    44    1
   145    43    46    1
   146    48    47    1
   147   170   171   ar
   148   166   167   ar
   149   146   147    1
   150   162   161    1
   151   152   153    1
   152   152   151    1
   153   150   147    1
   154   150   151    1
   155   149   148    2
   156   147   148    1
   157    46    47    1
   158   171   172    1
   159   171   169   ar
   160   167   169   ar
   161   157   156    2
   162   156   155    1
   163   160   158    1
   164   158   155    1
   165   158   159    1
   166   155   154    1
