@<TRIPOS>MOLECULE
tmp/1mxiA00.pdb
 146 141 0 0 0
SMALL
GASTEIGER

@<TRIPOS>ATOM
      1  N         -1.0670  -20.7730    3.3330 N.3    78  LEU78      -0.1231
      2  CA        -1.5540  -20.2240    2.0820 C.3    78  LEU78       0.1693
      3  C         -0.3650  -20.1740    1.1530 C.2    78  LEU78       0.2593
      4  O          0.6380  -19.4970    1.4260 O.2    78  LEU78      -0.2718
      5  CB        -2.1400  -18.7900    2.2980 C.3    78  LEU78       0.0284
      6  CG        -3.6070  -18.7100    2.8040 C.3    78  LEU78       0.0019
      7  CD1       -4.5510  -19.1410    1.6730 C.3    78  LEU78       0.0001
      8  CD2       -3.8250  -19.5560    4.0790 C.3    78  LEU78       0.0001
      9  N         -0.4290  -20.9010    0.0330 N.am   79  THR79      -0.1939
     10  CA         0.6930  -20.9230   -0.8960 C.3    79  THR79       0.2028
     11  C          0.1710  -21.1140   -2.3100 C.2    79  THR79       0.2642
     12  O         -0.7390  -21.8910   -2.5240 O.2    79  THR79      -0.2714
     13  CB         1.6650  -22.0820   -0.5440 C.3    79  THR79       0.1808
     14  OG1        2.5220  -22.3630   -1.6620 O.3    79  THR79      -0.2208
     15  CG2        0.9240  -23.3220   -0.2200 C.3    79  THR79       0.0379
     16  N          0.7270  -20.3890   -3.2850 N.am   80  THR80      -0.1950
     17  CA         0.2720  -20.6010   -4.6470 C.3    80  THR80       0.1897
     18  C          0.5950  -22.0660   -5.0300 C.2    80  THR80       0.2313
     19  O          0.1380  -22.5440   -6.0710 O.2    80  THR80      -0.2863
     20  CB         0.9720  -19.6320   -5.6670 C.3    80  THR80       0.1794
     21  OG1        2.3780  -19.8200   -5.5940 O.3    80  THR80      -0.2208
     22  CG2        0.6430  -18.1720   -5.3840 C.3    80  THR80       0.0378
     23  N          0.6930  -17.2380    6.3760 N.3    99  PHE99      -0.1227
     24  CA         1.0640  -16.6220    5.0940 C.3    99  PHE99       0.1736
     25  C          2.5510  -16.3980    5.0680 C.2    99  PHE99       0.2596
     26  O          3.1420  -16.1970    6.1090 O.2    99  PHE99      -0.2718
     27  CB         0.3610  -15.2570    4.9240 C.3    99  PHE99       0.0547
     28  CG        -1.1610  -15.3330    4.9630 C.ar   99  PHE99      -0.0202
     29  CD1       -1.8210  -15.5220    6.1760 C.ar   99  PHE99      -0.0042
     30  CD2       -1.9170  -15.2930    3.7700 C.ar   99  PHE99      -0.0042
     31  CE1       -3.2040  -15.6930    6.2100 C.ar   99  PHE99      -0.0003
     32  CE2       -3.2960  -15.4610    3.8030 C.ar   99  PHE99      -0.0003
     33  CZ        -3.9310  -15.6690    5.0100 C.ar   99  PHE99      -0.0000
     34  N          3.1380  -16.4170    3.8800 N.am  100  GLY100     -0.1943
     35  CA         4.5650  -16.1720    3.7850 C.3   100  GLY100      0.1998
     36  C          4.9340  -14.7570    3.4560 C.2   100  GLY100      0.2481
     37  O          4.0790  -13.8780    3.2680 O.2   100  GLY100     -0.2729
     38  N          6.2440  -14.4720    3.4180 N.am  101  PRO101     -0.2715
     39  CA         6.7830  -13.1500    3.1150 C.3   101  PRO101      0.1536
     40  C          6.4590  -12.7070    1.7010 C.2   101  PRO101      0.2598
     41  O          6.3360  -13.5370    0.7940 O.2   101  PRO101     -0.2715
     42  CB         8.3060  -13.2980    3.3160 C.3   101  PRO101      0.0310
     43  CG         8.5400  -14.7210    3.7190 C.3   101  PRO101      0.0237
     44  CD         7.2880  -15.5030    3.5880 C.3   101  PRO101      0.0939
     45  N          6.4070  -11.4020    1.4810 N.am  102  GLU102     -0.1964
     46  CA         6.0720  -10.8690    0.1640 C.3   102  GLU102      0.1733
     47  C          6.9930  -11.2170   -0.9910 C.2   102  GLU102      0.2617
     48  O          6.5820  -11.2510   -2.1590 O.2   102  GLU102     -0.2715
     49  CB         5.9210   -9.3210    0.2060 C.3   102  GLU102      0.0429
     50  CG         6.5040   -8.5160    1.3720 C.3   102  GLU102      0.1163
     51  CD         5.8280   -8.6810    2.7440 C.2   102  GLU102      0.3649
     52  OE1        6.2190   -9.6270    3.4300 O.co2 102  GLU102     -0.2457
     53  OE2        4.9830   -7.8390    3.1400 O.co2 102  GLU102     -0.2457
     54  N          8.2480  -11.4790   -0.6850 N.am  103  THR103     -0.1937
     55  CA         9.2050  -11.7380   -1.7600 C.3   103  THR103      0.2028
     56  C          9.5240  -13.2130   -1.9820 C.2   103  THR103      0.2642
     57  O         10.2390  -13.5430   -2.9190 O.2   103  THR103     -0.2714
     58  CB        10.5020  -10.9820   -1.4690 C.3   103  THR103      0.1808
     59  OG1       11.0370  -11.4410   -0.2160 O.3   103  THR103     -0.2208
     60  CG2       10.2220   -9.4720   -1.3860 C.3   103  THR103      0.0379
     61  N          8.9990  -14.1140   -1.1580 N.am  104  ARG104     -0.1963
     62  CA         9.3580  -15.5130   -1.3560 C.3   104  ARG104      0.1729
     63  C          8.3560  -16.5480   -0.8980 C.2   104  ARG104      0.2617
     64  O          8.4900  -17.7220   -1.2360 O.2   104  ARG104     -0.2715
     65  CB        10.7080  -15.7950   -0.6750 C.3   104  ARG104      0.0348
     66  CG        10.7250  -15.4180    0.7740 C.3   104  ARG104      0.0492
     67  CD        12.1000  -15.5640    1.4250 C.3   104  ARG104      0.2205
     68  NE        12.1070  -14.7870    2.6680 N.pl3 104  ARG104     -0.0865
     69  CZ        12.1160  -15.3050    3.8900 C.cat 104  ARG104      0.5346
     70  NH1       12.1260  -16.6250    4.0850 N.pl3 104  ARG104      0.1354
     71  NH2       12.0980  -14.5000    4.9300 N.pl3 104  ARG104      0.1354
     72  N          7.3500  -16.1570   -0.1380 N.am  105  GLY105     -0.1940
     73  CA         6.4280  -17.2060    0.2930 C.3   105  GLY105      0.2014
     74  C          7.0040  -18.1780    1.3440 C.2   105  GLY105      0.2638
     75  O          8.1990  -18.1850    1.6410 O.2   105  GLY105     -0.2714
     76  N          6.1510  -19.0200    1.9170 N.am  106  ILE106     -0.1977
     77  CA         6.5760  -19.9490    2.9700 C.3   106  ILE106      0.1596
     78  C          7.6540  -20.9920    2.5940 C.2   106  ILE106      0.2287
     79  O          7.5090  -21.7190    1.6130 O.2   106  ILE106     -0.2864
     80  CB         5.3710  -20.7120    3.5010 C.3   106  ILE106      0.0276
     81  CG1        4.3620  -19.6840    3.9880 C.3   106  ILE106      0.0022
     82  CG2        5.7940  -21.6520    4.6400 C.3   106  ILE106      0.0022
     83  CD1        2.9050  -20.2590    4.2610 C.3   106  ILE106      0.0001
     84  N         -3.1480  -24.5690    0.9880 N.3   120  ILE120     -0.1231
     85  CA        -4.2200  -24.0810    0.1480 C.3   120  ILE120      0.1692
     86  C         -3.8710  -22.8870   -0.7200 C.2   120  ILE120      0.2592
     87  O         -3.1190  -22.0150   -0.3200 O.2   120  ILE120     -0.2718
     88  CB        -5.4420  -23.7420    1.0450 C.3   120  ILE120      0.0266
     89  CG1       -5.0250  -22.8960    2.2290 C.3   120  ILE120      0.0019
     90  CG2       -6.0570  -25.0350    1.6280 C.3   120  ILE120      0.0020
     91  CD1       -6.2460  -22.4010    3.0300 C.3   120  ILE120      0.0001
     92  N         -4.5090  -22.8100   -1.8800 N.am  121  ARG121     -0.1966
     93  CA        -4.1860  -21.7010   -2.7990 C.3   121  ARG121      0.1729
     94  C         -5.4160  -20.8490   -3.0530 C.2   121  ARG121      0.2616
     95  O         -6.5250  -21.3180   -2.9670 O.2   121  ARG121     -0.2715
     96  CB        -3.7390  -22.2840   -4.1500 C.3   121  ARG121      0.0348
     97  CG        -4.8580  -23.0990   -4.8150 C.3   121  ARG121      0.0492
     98  CD        -4.5590  -23.4030   -6.3280 C.3   121  ARG121      0.2205
     99  NE        -5.4130  -24.5000   -6.7810 N.pl3 121  ARG121     -0.0865
    100  CZ        -6.4710  -24.3760   -7.5800 C.cat 121  ARG121      0.5346
    101  NH1       -6.8290  -23.1870   -8.0620 N.pl3 121  ARG121      0.1354
    102  NH2       -7.2020  -25.4510   -7.8710 N.pl3 121  ARG121      0.1354
    103  N         -5.1840  -19.5750   -3.3240 N.am  122  ILE122     -0.1977
    104  CA        -6.2800  -18.7120   -3.7450 C.3   122  ILE122      0.1596
    105  C         -6.1670  -18.8020   -5.2810 C.2   122  ILE122      0.2287
    106  O         -5.1030  -18.5920   -5.8460 O.2   122  ILE122     -0.2864
    107  CB        -6.0110  -17.2940   -3.2790 C.3   122  ILE122      0.0276
    108  CG1       -6.0720  -17.2380   -1.7100 C.3   122  ILE122      0.0022
    109  CG2       -7.0570  -16.4100   -3.8760 C.3   122  ILE122      0.0022
    110  CD1       -5.5330  -15.9170   -1.1530 C.3   122  ILE122      0.0001
    111  N         -6.0900  -18.2660   -9.2630 N.3   124  MET124     -0.1245
    112  CA        -5.6700  -17.1630  -10.1150 C.3   124  MET124      0.1570
    113  C         -5.6850  -17.6310  -11.5860 C.2   124  MET124      0.2261
    114  O         -5.6560  -18.8120  -11.8870 O.2   124  MET124     -0.2867
    115  CB        -4.2690  -16.6800   -9.7490 C.3   124  MET124      0.0387
    116  CG        -4.2020  -16.1930   -8.3150 C.3   124  MET124      0.0595
    117  SD        -2.5450  -15.4680   -8.0720 S.3   124  MET124     -0.1393
    118  CE        -1.5040  -16.7670   -8.2320 C.3   124  MET124      0.0692
    119  N          2.3940  -12.2590   -8.5180 N.3   130  SER130     -0.1202
    120  CA         2.2080  -12.4950   -7.0990 C.3   130  SER130      0.2020
    121  C          1.2010  -11.5300   -6.4980 C.2   130  SER130      0.2618
    122  O          1.4190  -10.3170   -6.4780 O.2   130  SER130     -0.2717
    123  CB         3.5330  -12.3850   -6.3540 C.3   130  SER130      0.2103
    124  OG         3.3570  -12.7660   -5.0030 O.3   130  SER130     -0.2182
    125  N          0.0850  -12.0830   -6.0290 N.am  131  MET131     -0.1979
    126  CA        -0.9640  -11.2920   -5.4010 C.3   131  MET131      0.1605
    127  C         -0.3700  -10.5950   -4.1890 C.2   131  MET131      0.2287
    128  O          0.5380  -11.1150   -3.5490 O.2   131  MET131     -0.2864
    129  CB        -2.1220  -12.1840   -4.9680 C.3   131  MET131      0.0413
    130  CG        -2.9590  -11.5950   -3.8510 C.3   131  MET131      0.0598
    131  SD        -4.4570  -12.5110   -3.5290 S.3   131  MET131     -0.1393
    132  CE        -5.6690  -11.4000   -4.2050 C.3   131  MET131      0.0692
    133  N          0.2390   -9.3250   -0.5020 N.3   133  LEU133     -0.1245
    134  CA         0.0340  -10.0170    0.7760 C.3   133  LEU133      0.1561
    135  C         -1.1920   -9.5800    1.5560 C.2   133  LEU133      0.2260
    136  O         -1.9610  -10.4380    2.0050 O.2   133  LEU133     -0.2867
    137  CB         1.2570   -9.8930    1.7110 C.3   133  LEU133      0.0270
    138  CG         1.1160  -10.4160    3.1590 C.3   133  LEU133      0.0019
    139  CD1        0.9760  -11.9350    3.1860 C.3   133  LEU133      0.0001
    140  CD2        2.3480  -10.0530    4.0070 C.3   133  LEU133      0.0001
    141  N         -4.2220  -10.9570   -0.0280 N.3   136  SER136     -0.1217
    142  CA        -4.3520  -12.4060    0.1810 C.3   136  SER136      0.1889
    143  C         -4.9290  -12.7040    1.5370 C.2   136  SER136      0.2288
    144  O         -5.7450  -13.6400    1.7050 O.2   136  SER136     -0.2866
    145  CB        -2.9790  -13.1020    0.1260 C.3   136  SER136      0.2089
    146  OG        -2.4030  -12.8720   -1.1480 O.3   136  SER136     -0.2183
@<TRIPOS>BOND
     1   114   113    2
     2   113   112    1
     3   112   115    1
     4   112   111    1
     5   115   116    1
     6   119   120    1
     7   116   117    1
     8   118   117    1
     9   101   100    1
    10   102   100    1
    11   100    99    2
    12   120   121    1
    13   120   123    1
    14    99    98    1
    15   121   122    2
    16   121   125   am
    17   123   124    1
    18    98    97    1
    19    19    18    2
    20   125   126    1
    21   106   105    2
    22    20    21    1
    23    20    22    1
    24    20    17    1
    25   126   129    1
    26   126   127    1
    27   105   104    1
    28    18    17    1
    29   129   130    1
    30    97    96    1
    31    17    16    1
    32   132   131    1
    33   127   128    2
    34    96    93    1
    35   109   107    1
    36   130   131    1
    37   104   103    1
    38   104   107    1
    39   103    94   am
    40    16    11   am
    41   107   108    1
    42    94    95    2
    43    94    93    1
    44    57    56    2
    45    93    92    1
    46    12    11    2
    47    11    10    1
    48    48    47    2
    49    56    55    1
    50    56    61   am
    51    92    86   am
    52    55    58    1
    53    55    54    1
    54   108   110    1
    55    14    13    1
    56    58    60    1
    57    58    59    1
    58    62    61    1
    59    62    63    1
    60    62    65    1
    61    64    63    2
    62   146   145    1
    63    47    54   am
    64    47    46    1
    65    63    72   am
    66    10    13    1
    67    10     9    1
    68    86    87    2
    69    86    85    1
    70    65    66    1
    71    13    15    1
    72   133   134    1
    73    72    73    1
    74   141   142    1
    75     9     3   am
    76   145   142    1
    77    85    84    1
    78    85    88    1
    79    46    49    1
    80    46    45    1
    81   142   143    1
    82    49    50    1
    83    73    74    1
    84    66    67    1
    85   134   135    1
    86   134   137    1
    87    41    40    2
    88    88    90    1
    89    88    89    1
    90     3     4    2
    91     3     2    1
    92    74    75    2
    93    74    76   am
    94    50    51    1
    95    67    68    1
    96    45    40   am
    97   143   144    2
    98   135   136    2
    99    79    78    2
   100     7     6    1
   101    40    39    1
   102   137   138    1
   103    76    77    1
   104     2     5    1
   105     2     1    1
   106    89    91    1
   107     5     6    1
   108    78    77    1
   109    68    69    2
   110    51    53   ar
   111    51    52   ar
   112     6     8    1
   113    77    80    1
   114    39    42    1
   115    39    38    1
   116   138   139    1
   117   138   140    1
   118    37    36    2
   119    42    43    1
   120    38    36   am
   121    38    44    1
   122    36    35    1
   123    80    81    1
   124    80    82    1
   125    44    43    1
   126    30    32   ar
   127    30    28   ar
   128    35    34    1
   129    32    33   ar
   130    34    25   am
   131    69    70    1
   132    69    71    1
   133    81    83    1
   134    27    28    1
   135    27    24    1
   136    28    29   ar
   137    33    31   ar
   138    25    24    1
   139    25    26    2
   140    24    23    1
   141    29    31   ar
