@<TRIPOS>MOLECULE
tmp/1mxoA00.pdb
 119 109 0 0 0
SMALL
GASTEIGER

@<TRIPOS>ATOM
      1  N         27.0290    1.4870   16.0040 N.3    61  SER61      -0.1217
      2  CA        28.3680    1.9590   16.3460 C.3    61  SER61       0.1889
      3  C         29.2840    1.0300   17.1480 C.2    61  SER61       0.2288
      4  O         30.4620    1.3300   17.3010 O.2    61  SER61      -0.2866
      5  CB        28.3420    3.3670   16.9290 C.3    61  SER61       0.2089
      6  OG        28.0710    4.3890   15.9260 O.3    61  SER61      -0.2183
      7  N         32.4120    0.1500   15.4640 N.3    64  LYS64      -0.1245
      8  CA        33.6510    0.9290   15.5610 C.3    64  LYS64       0.1561
      9  C         34.7120    0.2140   16.3860 C.2    64  LYS64       0.2260
     10  O         35.9060    0.5080   16.2270 O.2    64  LYS64      -0.2867
     11  CB        33.3790    2.3040   16.1590 C.3    64  LYS64       0.0271
     12  CG        32.5550    3.2380   15.1870 C.3    64  LYS64       0.0035
     13  CD        32.1790    4.5510   15.8700 C.3    64  LYS64       0.0206
     14  CE        31.5290    5.5410   14.8530 C.3    64  LYS64       0.1093
     15  NZ        30.1330    5.1020   14.5250 N.3    64  LYS64      -0.1314
     16  N         29.5650   14.3260   12.1720 N.3   116  LEU116     -0.1231
     17  CA        28.9960   13.1270   12.7740 C.3   116  LEU116      0.1693
     18  C         28.5320   12.1610   11.6890 C.2   116  LEU116      0.2591
     19  O         28.8240   10.9700   11.7440 O.2   116  LEU116     -0.2718
     20  CB        27.8100   13.5050   13.6610 C.3   116  LEU116      0.0284
     21  CG        26.9750   12.3470   14.2250 C.3   116  LEU116      0.0019
     22  CD1       27.8860   11.4620   15.0930 C.3   116  LEU116      0.0001
     23  CD2       25.7880   12.9010   15.0400 C.3   116  LEU116      0.0001
     24  N         27.8510   12.6890   10.6770 N.am  117  GLN117     -0.1979
     25  CA        27.3440   11.8430    9.5990 C.3   117  GLN117      0.1601
     26  C         27.9020   12.2410    8.2550 C.2   117  GLN117      0.2287
     27  O         28.1650   13.4280    8.0010 O.2   117  GLN117     -0.2864
     28  CB        25.8110   11.9370    9.4820 C.3   117  GLN117      0.0394
     29  CG        25.0180   11.5960   10.7270 C.3   117  GLN117      0.0908
     30  CD        23.9800   12.6710   11.0440 C.2   117  GLN117      0.2608
     31  OE1       24.2990   13.8740   11.1200 O.2   117  GLN117     -0.2717
     32  NE2       22.7340   12.2480   11.2280 N.am  117  GLN117     -0.0878
     33  N         32.8060   13.2020   18.2010 N.3   147  TYR147     -0.1241
     34  CA        32.4660   11.8430   17.7880 C.3   147  TYR147      0.1605
     35  C         31.9010   11.9390   16.3770 C.2   147  TYR147      0.2264
     36  O         31.0050   12.7480   16.1450 O.2   147  TYR147     -0.2867
     37  CB        31.4160   11.2980   18.7350 C.3   147  TYR147      0.0534
     38  CG        31.0000    9.8850   18.4220 C.ar  147  TYR147     -0.0201
     39  CD1       29.8270    9.6350   17.7140 C.ar  147  TYR147     -0.0009
     40  CD2       31.7650    8.7960   18.8560 C.ar  147  TYR147     -0.0009
     41  CE1       29.4070    8.3400   17.4510 C.ar  147  TYR147      0.0417
     42  CE2       31.3570    7.4860   18.5930 C.ar  147  TYR147      0.0417
     43  CZ        30.1720    7.2700   17.8930 C.ar  147  TYR147      0.1957
     44  OH        29.7240    6.0030   17.6650 O.3   147  TYR147     -0.2866
     45  N         31.1290    9.5930   12.4490 N.3   149  ASN149     -0.1240
     46  CA        31.2700    8.4430   11.5610 C.3   149  ASN149      0.1653
     47  C         32.2620    8.7640   10.4530 C.2   149  ASN149      0.2266
     48  O         33.0160    7.8890   10.0150 O.2   149  ASN149     -0.2867
     49  CB        29.9380    8.0560   10.8780 C.3   149  ASN149      0.1155
     50  CG        28.9240    7.4820   11.8340 C.2   149  ASN149      0.2627
     51  OD1       29.2730    6.9460   12.8950 O.2   149  ASN149     -0.2716
     52  ND2       27.6370    7.5700   11.4580 N.am  149  ASN149     -0.0877
     53  N         19.0840   -1.4610    8.4980 N.3   208  VAL208     -0.1245
     54  CA        19.9740   -0.3670    8.1530 C.3   208  VAL208      0.1561
     55  C         20.0980   -0.2320    6.6260 C.2   208  VAL208      0.2260
     56  O         20.0850   -1.2160    5.8950 O.2   208  VAL208     -0.2867
     57  CB        21.3630   -0.5810    8.8010 C.3   208  VAL208      0.0252
     58  CG1       22.0130   -1.8350    8.2460 C.3   208  VAL208      0.0019
     59  CG2       22.2370    0.6510    8.5660 C.3   208  VAL208      0.0019
     60  N         29.3790    1.7040   11.1630 N.3   218  TYR218     -0.1241
     61  CA        28.2270    1.1510   11.8610 C.3   218  TYR218      0.1605
     62  C         27.5870   -0.0690   11.1670 C.2   218  TYR218      0.2264
     63  O         26.4210   -0.3670   11.4320 O.2   218  TYR218     -0.2867
     64  CB        27.1550    2.2490   11.9510 C.3   218  TYR218      0.0534
     65  CG        26.7830    2.8470   10.5770 C.ar  218  TYR218     -0.0201
     66  CD1       25.8640    2.2100    9.7320 C.ar  218  TYR218     -0.0009
     67  CD2       27.3260    4.0570   10.1570 C.ar  218  TYR218     -0.0009
     68  CE1       25.4900    2.7850    8.4910 C.ar  218  TYR218      0.0417
     69  CE2       26.9740    4.6420    8.9360 C.ar  218  TYR218      0.0417
     70  CZ        26.0490    3.9970    8.1050 C.ar  218  TYR218      0.1957
     71  OH        25.7080    4.5790    6.9020 O.3   218  TYR218     -0.2866
     72  N         23.4800   11.2040   24.4560 N.3   286  ASN286     -0.1240
     73  CA        24.0120   11.8870   23.2820 C.3   286  ASN286      0.1653
     74  C         24.3030   13.3730   23.5060 C.2   286  ASN286      0.2266
     75  O         25.1260   13.9690   22.7980 O.2   286  ASN286     -0.2867
     76  CB        23.0600   11.7240   22.0950 C.3   286  ASN286      0.1155
     77  CG        23.0970   10.3250   21.5240 C.2   286  ASN286      0.2627
     78  OD1       24.1350    9.6780   21.5410 O.2   286  ASN286     -0.2716
     79  ND2       21.9720    9.8550   21.0030 N.am  286  ASN286     -0.0877
     80  N         27.8930   13.1530   22.0110 N.3   290  LEU290     -0.1245
     81  CA        28.0220   13.7280   20.6690 C.3   290  LEU290      0.1561
     82  C         28.5200   15.1810   20.6520 C.2   290  LEU290      0.2260
     83  O         28.6670   15.7830   19.5830 O.2   290  LEU290     -0.2867
     84  CB        26.6720   13.6360   19.9390 C.3   290  LEU290      0.0270
     85  CG        26.0490   12.2360   19.7890 C.3   290  LEU290      0.0019
     86  CD1       24.7300   12.3130   19.0090 C.3   290  LEU290      0.0001
     87  CD2       27.0320   11.3110   19.0750 C.3   290  LEU290      0.0001
     88  N         24.0680    2.2410   17.7480 N.3   315  ALA315     -0.1231
     89  CA        22.6870    2.3340   17.3430 C.3   315  ALA315      0.1694
     90  C         22.5240    2.4020   15.8460 C.2   315  ALA315      0.2593
     91  O         23.4390    2.8030   15.1290 O.2   315  ALA315     -0.2718
     92  CB        22.0510    3.5920   17.9770 C.3   315  ALA315      0.0304
     93  N         21.3720    1.9290   15.3770 N.am  316  THR316     -0.1939
     94  CA        21.0050    2.1180   13.9730 C.3   316  THR316      0.2028
     95  C         19.5590    2.6240   14.1380 C.2   316  THR316      0.2642
     96  O         19.0690    2.7560   15.2650 O.2   316  THR316     -0.2714
     97  CB        21.0440    0.8320   13.0860 C.3   316  THR316      0.1808
     98  OG1       20.1720   -0.1760   13.6160 O.3   316  THR316     -0.2208
     99  CG2       22.4790    0.3220   12.9510 C.3   316  THR316      0.0379
    100  N         18.8730    2.9190   13.0440 N.am  317  GLY317     -0.1954
    101  CA        17.5280    3.4340   13.2050 C.3   317  GLY317      0.1869
    102  C         16.6040    2.5220   14.0000 C.2   317  GLY317      0.2309
    103  O         15.7010    3.0010   14.6950 O.2   317  GLY317     -0.2863
    104  N         16.1080    1.2780   19.2190 N.3   340  ASN340     -0.1240
    105  CA        17.1470    2.2280   19.5890 C.3   340  ASN340      0.1653
    106  C         16.5780    3.0230   20.7780 C.2   340  ASN340      0.2266
    107  O         15.9150    4.0460   20.5820 O.2   340  ASN340     -0.2867
    108  CB        17.4420    3.1520   18.3940 C.3   340  ASN340      0.1155
    109  CG        18.4340    4.2710   18.7270 C.2   340  ASN340      0.2627
    110  OD1       19.0680    4.2810   19.7830 O.2   340  ASN340     -0.2716
    111  ND2       18.5670    5.2170   17.8100 N.am  340  ASN340     -0.0877
    112  N         20.5490    5.6550   25.5490 N.3   343  ASN343     -0.1240
    113  CA        21.8280    5.1290   26.0180 C.3   343  ASN343      0.1653
    114  C         21.9060    5.0730   27.5330 C.2   343  ASN343      0.2266
    115  O         22.3820    4.0750   28.1000 O.2   343  ASN343     -0.2867
    116  CB        22.9960    5.9930   25.5310 C.3   343  ASN343      0.1155
    117  CG        23.3240    5.7860   24.0550 C.2   343  ASN343      0.2627
    118  OD1       23.1450    4.6880   23.4990 O.2   343  ASN343     -0.2716
    119  ND2       23.8300    6.8450   23.4150 N.am  343  ASN343     -0.0877
@<TRIPOS>BOND
     1    56    55    2
     2    55    54    1
     3    71    70    1
     4    27    26    2
     5    70    68   ar
     6    70    69   ar
     7    54    53    1
     8    54    57    1
     9    58    57    1
    10    26    25    1
    11    68    66   ar
    12    59    57    1
    13    69    67   ar
    14    28    25    1
    15    28    29    1
    16    25    24    1
    17    66    65   ar
    18    48    47    2
    19    67    65   ar
    20    47    46    1
    21    65    64    1
    22    24    18   am
    23    29    30    1
    24    49    46    1
    25    49    50    1
    26    30    31    2
    27    30    32   am
    28    60    61    1
    29    62    63    2
    30    62    61    1
    31    52    50   am
    32    46    45    1
    33    18    19    2
    34    18    17    1
    35    50    51    2
    36    61    64    1
    37    16    17    1
    38    17    20    1
    39    99    97    1
    40   100   101    1
    41   100    95   am
    42    97    98    1
    43    97    94    1
    44   101   102    1
    45    20    21    1
    46    94    95    1
    47    94    93    1
    48   102   103    2
    49    95    96    2
    50    21    23    1
    51    21    22    1
    52    15    14    1
    53    14    13    1
    54    91    90    2
    55    12    13    1
    56    12    11    1
    57    93    90   am
    58     7     8    1
    59     8    11    1
    60     8     9    1
    61    90    89    1
    62     6     5    1
    63     1     2    1
    64    36    35    2
    65    10     9    2
    66     2     5    1
    67     2     3    1
    68    35    34    1
    69     3     4    2
    70    89    88    1
    71    89    92    1
    72    41    39   ar
    73    41    43   ar
    74    44    43    1
    75    39    38   ar
    76    34    33    1
    77    34    37    1
    78   111   109   am
    79    43    42   ar
    80   108   109    1
    81   108   105    1
    82    38    37    1
    83    38    40   ar
    84    42    40   ar
    85   109   110    2
    86    86    85    1
    87    87    85    1
    88   104   105    1
    89    83    82    2
    90   105   106    1
    91    85    84    1
    92    84    81    1
    93   107   106    2
    94    82    81    1
    95    81    80    1
    96    79    77   am
    97    77    78    2
    98    77    76    1
    99    76    73    1
   100    75    74    2
   101    73    74    1
   102    73    72    1
   103   119   117   am
   104   118   117    2
   105   117   116    1
   106   116   113    1
   107   112   113    1
   108   113   114    1
   109   114   115    2
