@<TRIPOS>MOLECULE
tmp/1mypD01.pdb
 79 72 0 0 0
SMALL
GASTEIGER

@<TRIPOS>ATOM
      1  N          1.8890   75.7010   -0.0030 N.3    75  ARG75      -0.1231
      2  CA         1.2040   76.9650   -0.1970 C.3    75  ARG75       0.1694
      3  C          0.3950   77.2350   -1.4650 C.2    75  ARG75       0.2592
      4  O          0.6390   76.6880   -2.5450 O.2    75  ARG75      -0.2718
      5  CB         2.3800   77.9040   -0.3810 C.3    75  ARG75       0.0321
      6  CG         3.0760   78.3420    0.8870 C.3    75  ARG75       0.0489
      7  CD         4.3530   79.1020    0.5660 C.3    75  ARG75       0.2205
      8  NE         4.1580   80.4500    0.0370 N.pl3  75  ARG75      -0.0865
      9  CZ         5.2050   81.2510   -0.0830 C.cat  75  ARG75       0.5346
     10  NH1        6.4080   80.8400    0.2830 N.pl3  75  ARG75       0.1354
     11  NH2        5.0690   82.4720   -0.5700 N.pl3  75  ARG75       0.1354
     12  N         -0.5620   78.1620   -1.3890 N.am   76  ASN76      -0.1974
     13  CA        -1.3400   78.5200   -2.5650 C.3    76  ASN76       0.1688
     14  C         -0.4730   79.5100   -3.3010 C.2    76  ASN76       0.2292
     15  O         -0.1680   80.5150   -2.6650 O.2    76  ASN76      -0.2864
     16  CB        -2.5540   79.3960   -2.2310 C.3    76  ASN76       0.1181
     17  CG        -3.8540   78.7800   -2.6870 C.2    76  ASN76       0.2629
     18  OD1       -4.1630   77.6400   -2.3070 O.2    76  ASN76      -0.2716
     19  ND2       -4.7530   79.6030   -3.2200 N.am   76  ASN76      -0.0877
     20  N         -1.2270   80.2130   -6.5610 N.3    78  SER78      -0.1202
     21  CA        -2.0200   80.3940   -7.7490 C.3    78  SER78       0.2020
     22  C         -2.7990   81.6040   -7.3100 C.2    78  SER78       0.2618
     23  O         -4.0010   81.6460   -7.5660 O.2    78  SER78      -0.2717
     24  CB        -2.9810   79.2320   -7.7050 C.3    78  SER78       0.2103
     25  OG        -2.8010   78.8090   -6.3750 O.3    78  SER78      -0.2182
     26  N         -2.0470   82.4690   -6.6260 N.am   79  ASN79      -0.1974
     27  CA        -2.5100   83.6780   -5.9780 C.3    79  ASN79       0.1688
     28  C         -1.4280   84.5040   -5.3150 C.2    79  ASN79       0.2292
     29  O         -0.3220   84.0720   -5.0020 O.2    79  ASN79      -0.2864
     30  CB        -2.9270   83.1690   -4.5950 C.3    79  ASN79       0.1181
     31  CG        -4.3840   82.8250   -4.4360 C.2    79  ASN79       0.2629
     32  OD1       -4.9330   81.9010   -5.0660 O.2    79  ASN79      -0.2716
     33  ND2       -4.9500   83.4650   -3.4210 N.am   79  ASN79      -0.0877
     34  N         -2.4960   86.0810   -2.4900 N.3    81  LEU81      -0.1245
     35  CA        -3.1900   86.1140   -1.2180 C.3    81  LEU81       0.1561
     36  C         -2.4070   85.6650    0.0120 C.2    81  LEU81       0.2260
     37  O         -2.8270   85.8410    1.1530 O.2    81  LEU81      -0.2867
     38  CB        -4.4880   85.3080   -1.3610 C.3    81  LEU81       0.0270
     39  CG        -5.6230   86.2300   -1.7550 C.3    81  LEU81       0.0019
     40  CD1       -4.9570   87.3430   -2.5450 C.3    81  LEU81       0.0001
     41  CD2       -6.6610   85.5070   -2.6020 C.3    81  LEU81       0.0001
     42  N         -1.3550   82.4110    1.2210 N.3    83  LEU83      -0.1245
     43  CA        -2.0620   81.4310    2.0210 C.3    83  LEU83       0.1561
     44  C         -1.5380   80.0080    2.1610 C.2    83  LEU83       0.2260
     45  O         -0.7650   79.4240    1.4020 O.2    83  LEU83      -0.2867
     46  CB        -3.2690   81.2650    1.0790 C.3    83  LEU83       0.0270
     47  CG        -4.6300   81.7820    1.5140 C.3    83  LEU83       0.0019
     48  CD1       -4.5150   82.6760    2.7340 C.3    83  LEU83       0.0001
     49  CD2       -5.1780   82.5830    0.3550 C.3    83  LEU83       0.0001
     50  N         -1.7930   76.0370    1.7980 N.3    85  ALA85      -0.1231
     51  CA        -2.5670   75.1040    1.0000 C.3    85  ALA85       0.1694
     52  C         -3.4010   74.2180    1.8950 C.2    85  ALA85       0.2591
     53  O         -2.9510   73.6980    2.9100 O.2    85  ALA85      -0.2718
     54  CB        -1.7230   74.2140    0.1160 C.3    85  ALA85       0.0304
     55  N         -4.6240   74.0770    1.4110 N.am   86  VAL86      -0.1980
     56  CA        -5.7140   73.3310    2.0220 C.3    86  VAL86       0.1595
     57  C         -6.5440   72.3480    1.1950 C.2    86  VAL86       0.2287
     58  O         -6.7180   72.4510   -0.0120 O.2    86  VAL86      -0.2864
     59  CB        -6.6800   74.4790    2.1480 C.3    86  VAL86       0.0276
     60  CG1       -7.9500   74.0320    2.8520 C.3    86  VAL86       0.0022
     61  CG2       -5.9070   75.5850    2.8540 C.3    86  VAL86       0.0022
     62  N         -8.6880   70.5170   -1.4520 N.3    88  GLN88      -0.1245
     63  CA        -9.6400   70.9460   -2.5120 C.3    88  GLN88       0.1566
     64  C        -10.8090   69.9520   -2.6380 C.2    88  GLN88       0.2260
     65  O        -11.8600   70.2740   -3.2020 O.2    88  GLN88      -0.2867
     66  CB        -8.9150   71.5400   -3.7330 C.3    88  GLN88       0.0367
     67  CG        -8.5320   73.0300   -3.5760 C.3    88  GLN88       0.0905
     68  CD        -9.5950   73.8550   -2.8630 C.2    88  GLN88       0.2608
     69  OE1      -10.7780   73.8220   -3.2260 O.2    88  GLN88      -0.2717
     70  NE2       -9.1830   74.5890   -1.8260 N.am   88  GLN88      -0.0878
     71  N        -15.0360   69.5330    3.1110 N.3    91  GLN91      -0.1245
     72  CA       -14.7290   70.6920    3.9630 C.3    91  GLN91       0.1566
     73  C        -15.1820   70.4240    5.3950 C.2    91  GLN91       0.2260
     74  O        -15.9270   69.4720    5.6610 O.2    91  GLN91      -0.2867
     75  CB       -15.3850   71.9480    3.3920 C.3    91  GLN91       0.0367
     76  CG       -14.7490   72.3590    2.0770 C.3    91  GLN91       0.0905
     77  CD       -13.3240   72.8470    2.2480 C.2    91  GLN91       0.2608
     78  OE1      -12.9760   73.4620    3.2630 O.2    91  GLN91      -0.2717
     79  NE2      -12.5170   72.6050    1.2830 N.am   91  GLN91      -0.0878
@<TRIPOS>BOND
     1    21    24    1
     2    21    22    1
     3    21    20    1
     4    24    25    1
     5    23    22    2
     6    22    26   am
     7    26    27    1
     8    27    28    1
     9    27    30    1
    10    28    29    2
    11    32    31    2
    12    30    31    1
    13    31    33   am
    14    66    67    1
    15    66    63    1
    16    67    68    1
    17    14    15    2
    18    14    13    1
    19    69    68    2
    20    19    17   am
    21    65    64    2
    22    68    70   am
    23    17    18    2
    24    17    16    1
    25    64    63    1
    26    41    39    1
    27    13    16    1
    28    13    12    1
    29     4     3    2
    30    40    39    1
    31    63    62    1
    32    34    35    1
    33    39    38    1
    34     3    12   am
    35     3     2    1
    36    38    35    1
    37    35    36    1
    38    11     9    1
    39     5     2    1
    40     5     6    1
    41     2     1    1
    42     9     8    2
    43     9    10    1
    44    58    57    2
    45    36    37    2
    46     8     7    1
    47    54    51    1
    48    49    47    1
    49     7     6    1
    50    51    50    1
    51    51    52    1
    52    46    47    1
    53    46    43    1
    54    57    56    1
    55    42    43    1
    56    79    77   am
    57    45    44    2
    58    55    52   am
    59    55    56    1
    60    47    48    1
    61    52    53    2
    62    43    44    1
    63    56    59    1
    64    76    77    1
    65    76    75    1
    66    59    60    1
    67    59    61    1
    68    77    78    2
    69    71    72    1
    70    75    72    1
    71    72    73    1
    72    73    74    2
