@<TRIPOS>MOLECULE
tmp/1mz6A03.pdb
 193 182 0 0 0
SMALL
GASTEIGER

@<TRIPOS>ATOM
      1  N         28.8050    5.6620   13.5770 N.3    36  ARG36      -0.1231
      2  CA        29.0750    4.5630   12.6580 C.3    36  ARG36       0.1694
      3  C         28.7020    5.0320   11.2660 C.2    36  ARG36       0.2591
      4  O         28.0970    6.0810   11.1590 O.2    36  ARG36      -0.2718
      5  CB        28.1820    3.3800   13.0010 C.3    36  ARG36       0.0321
      6  CG        28.6440    2.4820   14.1610 C.3    36  ARG36       0.0489
      7  CD        28.3480    0.9850   13.9780 C.3    36  ARG36       0.2205
      8  NE        29.0390    0.5070   12.7890 N.pl3  36  ARG36      -0.0865
      9  CZ        28.7180   -0.5530   12.0240 C.cat  36  ARG36       0.5346
     10  NH1       29.4500   -0.7960   10.9490 N.pl3  36  ARG36       0.1354
     11  NH2       27.7140   -1.3760   12.2980 N.pl3  36  ARG36       0.1354
     12  N         29.0440    4.2690   10.2190 N.am   37  ILE37      -0.1980
     13  CA        28.6580    4.5370    8.8370 C.3    37  ILE37       0.1595
     14  C         29.0840    5.8600    8.2530 C.2    37  ILE37       0.2287
     15  O         28.2850    6.5930    7.6880 O.2    37  ILE37      -0.2864
     16  CB        27.1490    4.3600    8.6130 C.3    37  ILE37       0.0276
     17  CG1       26.5520    3.2090    9.4490 C.3    37  ILE37       0.0022
     18  CG2       26.8480    4.1170    7.1480 C.3    37  ILE37       0.0022
     19  CD1       27.3110    1.9130    9.3970 C.3    37  ILE37       0.0001
     20  N         24.4610    7.4220   16.6620 N.3    54  ARG54      -0.1245
     21  CA        23.5900    6.4940   17.3690 C.3    54  ARG54       0.1563
     22  C         23.6600    6.8550   18.8440 C.2    54  ARG54       0.2260
     23  O         24.5970    6.4980   19.5870 O.2    54  ARG54      -0.2867
     24  CB        23.9340    5.0180   17.1150 C.3    54  ARG54       0.0307
     25  CG        24.4480    4.6340   15.7520 C.3    54  ARG54       0.0489
     26  CD        24.2450    3.1300   15.3860 C.3    54  ARG54       0.2205
     27  NE        24.1980    2.9210   13.9300 N.pl3  54  ARG54      -0.0865
     28  CZ        24.2390    1.7360   13.3550 C.cat  54  ARG54       0.5346
     29  NH1       24.3200    0.6530   14.1080 N.pl3  54  ARG54       0.1354
     30  NH2       24.1990    1.6260   12.0390 N.pl3  54  ARG54       0.1354
     31  N         22.1090   -1.3380   15.4250 N.3    60  ASP60      -0.1225
     32  CA        21.3120   -0.9160   14.2920 C.3    60  ASP60       0.1805
     33  C         19.8870   -0.4530   14.6060 C.2    60  ASP60       0.2597
     34  O         19.4270    0.5990   14.1250 O.2    60  ASP60      -0.2718
     35  CB        21.1550   -2.0990   13.3650 C.3    60  ASP60       0.1424
     36  CG        22.4190   -2.4440   12.6160 C.2    60  ASP60       0.3668
     37  OD1       22.3070   -3.3370   11.7690 O.co2  60  ASP60      -0.2456
     38  OD2       23.5420   -1.9090   12.7510 O.co2  60  ASP60      -0.2456
     39  N         19.1500   -1.2580   15.3670 N.am   61  ASN61      -0.1974
     40  CA        17.7480   -0.9210   15.6310 C.3    61  ASN61       0.1688
     41  C         17.5200   -0.1200   16.8600 C.2    61  ASN61       0.2292
     42  O         16.6320   -0.4590   17.6130 O.2    61  ASN61      -0.2864
     43  CB        16.8750   -2.1640   15.7590 C.3    61  ASN61       0.1181
     44  CG        17.2950   -3.2600   14.8210 C.2    61  ASN61       0.2629
     45  OD1       16.8380   -3.3520   13.6800 O.2    61  ASN61      -0.2716
     46  ND2       18.1880   -4.1130   15.3070 N.am   61  ASN61      -0.0877
     47  N         14.5690    5.8220   13.6180 N.3    94  ARG94      -0.1245
     48  CA        15.8950    6.1130   13.0700 C.3    94  ARG94       0.1563
     49  C         15.9130    6.3520   11.5730 C.2    94  ARG94       0.2260
     50  O         15.0310    5.9130   10.8100 O.2    94  ARG94      -0.2867
     51  CB        16.8530    4.9490   13.3750 C.3    94  ARG94       0.0307
     52  CG        16.2960    3.5810   12.8900 C.3    94  ARG94       0.0489
     53  CD        16.6920    2.2820   13.6650 C.3    94  ARG94       0.2205
     54  NE        16.3260    1.1220   12.8360 N.pl3  94  ARG94      -0.0865
     55  CZ        15.3170    0.2730   13.0500 C.cat  94  ARG94       0.5346
     56  NH1       14.5300    0.3610   14.1090 N.pl3  94  ARG94       0.1354
     57  NH2       15.1290   -0.6980   12.1930 N.pl3  94  ARG94       0.1354
     58  N         19.2610    6.0190    8.8700 N.3    96  MET96      -0.1230
     59  CA        20.5890    5.4530    8.8480 C.3    96  MET96       0.1702
     60  C         21.0930    5.1620    7.4390 C.2    96  MET96       0.2592
     61  O         20.3680    5.3020    6.4440 O.2    96  MET96      -0.2718
     62  CB        20.5100    4.1410    9.5900 C.3    96  MET96       0.0401
     63  CG        19.2770    3.2780    9.1840 C.3    96  MET96       0.0596
     64  SD        18.9440    1.9260   10.4320 S.3    96  MET96      -0.1393
     65  CE        20.6590    1.2020   10.3790 C.3    96  MET96       0.0692
     66  N         22.3620    4.7800    7.3750 N.am   97  ASP97      -0.1974
     67  CA        22.9560    4.2430    6.1760 C.3    97  ASP97       0.1709
     68  C         22.9950    5.2300    5.0180 C.2    97  ASP97       0.2293
     69  O         22.6290    4.9180    3.8830 O.2    97  ASP97      -0.2864
     70  CB        22.2200    2.9580    5.7820 C.3    97  ASP97       0.1436
     71  CG        22.4250    1.7970    6.7980 C.2    97  ASP97       0.3671
     72  OD1       22.9530    1.9700    7.9420 O.co2  97  ASP97      -0.2456
     73  OD2       22.0790    0.6320    6.5120 O.co2  97  ASP97      -0.2456
     74  N         13.1860    4.1930    9.6040 N.3   114  PHE114     -0.1241
     75  CA        12.2830    3.2880   10.2670 C.3   114  PHE114      0.1605
     76  C         11.7550    3.9040   11.5550 C.2   114  PHE114      0.2264
     77  O         12.4100    4.7350   12.1980 O.2   114  PHE114     -0.2867
     78  CB        12.9450    1.9550   10.5580 C.3   114  PHE114      0.0534
     79  CG        13.7400    1.3800    9.4120 C.ar  114  PHE114     -0.0203
     80  CD1       15.0540    1.7690    9.1930 C.ar  114  PHE114     -0.0042
     81  CD2       13.1970    0.3890    8.5840 C.ar  114  PHE114     -0.0042
     82  CE1       15.7970    1.2210    8.1570 C.ar  114  PHE114     -0.0003
     83  CE2       13.9620   -0.1850    7.5350 C.ar  114  PHE114     -0.0003
     84  CZ        15.2590    0.2410    7.3370 C.ar  114  PHE114     -0.0000
     85  N         15.9610   -6.4980   12.2050 N.3   120  SER120     -0.1202
     86  CA        16.5710   -5.9270   11.0080 C.3   120  SER120      0.2020
     87  C         15.7780   -6.0700    9.6800 C.2   120  SER120      0.2619
     88  O         14.9700   -7.0010    9.4780 O.2   120  SER120     -0.2717
     89  CB        17.9870   -6.4550   10.8510 C.3   120  SER120      0.2103
     90  OG        17.9150   -7.7790   10.3820 O.3   120  SER120     -0.2182
     91  N         16.0890   -5.1500    8.7650 N.am  121  TRP121     -0.1961
     92  CA        15.2820   -4.9130    7.5750 C.3   121  TRP121      0.1771
     93  C         14.9360   -6.0470    6.6320 C.2   121  TRP121      0.2620
     94  O         13.8130   -6.0770    6.0950 O.2   121  TRP121     -0.2715
     95  CB        15.7610   -3.7050    6.7970 C.3   121  TRP121      0.0590
     96  CG        16.9610   -3.8650    5.9300 C.ar  121  TRP121      0.0006
     97  CD1       18.2330   -4.1000    6.3240 C.ar  121  TRP121      0.0946
     98  CD2       17.0110   -3.6820    4.5130 C.ar  121  TRP121      0.0152
     99  NE1       19.0730   -4.1120    5.2360 N.ar  121  TRP121     -0.2442
    100  CE2       18.3390   -3.8590    4.1120 C.ar  121  TRP121      0.0810
    101  CE3       16.0550   -3.4000    3.5370 C.ar  121  TRP121      0.0012
    102  CZ2       18.7370   -3.7680    2.7980 C.ar  121  TRP121      0.0191
    103  CZ3       16.4540   -3.3140    2.2200 C.ar  121  TRP121      0.0001
    104  CH2       17.7840   -3.5040    1.8610 C.ar  121  TRP121      0.0015
    105  N         15.8470   -6.9760    6.4120 N.am  122  THR122     -0.1951
    106  CA        15.5070   -8.0060    5.4620 C.3   122  THR122      0.1897
    107  C         14.4350   -8.9150    6.0430 C.2   122  THR122      0.2313
    108  O         13.6260   -9.4980    5.3110 O.2   122  THR122     -0.2863
    109  CB        16.7500   -8.7540    5.0340 C.3   122  THR122      0.1794
    110  OG1       17.5310   -9.0740    6.1910 O.3   122  THR122     -0.2208
    111  CG2       17.6600   -7.8080    4.2760 C.3   122  THR122      0.0378
    112  N         17.3050    0.4520    0.2340 N.3   177  VAL177     -0.1245
    113  CA        18.1760    1.4310    0.8270 C.3   177  VAL177      0.1561
    114  C         19.3050    1.7000   -0.1730 C.2   177  VAL177      0.2260
    115  O         19.5990    0.8630   -1.0420 O.2   177  VAL177     -0.2867
    116  CB        18.7530    0.9220    2.1650 C.3   177  VAL177      0.0252
    117  CG1       19.7920    1.8440    2.6620 C.3   177  VAL177      0.0019
    118  CG2       17.6810    0.8290    3.2030 C.3   177  VAL177      0.0019
    119  N         20.2800   -1.2490   -2.5030 N.3   196  GLN196     -0.1245
    120  CA        20.0530   -2.6550   -2.1780 C.3   196  GLN196      0.1566
    121  C         18.5650   -2.8630   -1.8590 C.2   196  GLN196      0.2260
    122  O         18.0040   -2.1190   -1.0830 O.2   196  GLN196     -0.2867
    123  CB        21.0050   -3.1490   -1.0660 C.3   196  GLN196      0.0367
    124  CG        20.7660   -2.5200    0.2920 C.3   196  GLN196      0.0905
    125  CD        22.0100   -2.3440    1.1690 C.2   196  GLN196      0.2608
    126  OE1       22.2910   -1.2360    1.6330 O.2   196  GLN196     -0.2717
    127  NE2       22.7440   -3.4290    1.4110 N.am  196  GLN196     -0.0878
    128  N         24.5310   -7.1110   -1.3440 N.3   230  SER230     -0.1202
    129  CA        23.9670   -6.0280   -0.5740 C.3   230  SER230      0.2020
    130  C         24.9960   -4.9260   -0.5230 C.2   230  SER230      0.2618
    131  O         26.1520   -5.1620   -0.9140 O.2   230  SER230     -0.2717
    132  CB        23.6550   -6.5320    0.8280 C.3   230  SER230      0.2103
    133  OG        24.7230   -7.3540    1.2770 O.3   230  SER230     -0.2182
    134  N         24.5850   -3.7460   -0.0460 N.am  231  GLU231     -0.1979
    135  CA        25.4340   -2.5550    0.0530 C.3   231  GLU231      0.1602
    136  C         26.3320   -2.3940   -1.1600 C.2   231  GLU231      0.2287
    137  O         27.5230   -2.5150   -1.0360 O.2   231  GLU231     -0.2864
    138  CB        26.2990   -2.6000    1.3460 C.3   231  GLU231      0.0415
    139  CG        25.5690   -2.1450    2.6140 C.3   231  GLU231      0.1163
    140  CD        26.2980   -2.3600    3.9590 C.2   231  GLU231      0.3649
    141  OE1       27.3820   -2.9590    4.0170 O.co2 231  GLU231     -0.2457
    142  OE2       25.7720   -1.9080    5.0090 O.co2 231  GLU231     -0.2457
    143  N         28.7240   -6.0490   -1.6240 N.3   246  ARG246     -0.1245
    144  CA        29.0410   -6.6940   -0.3840 C.3   246  ARG246      0.1563
    145  C         28.4000   -8.0660   -0.5170 C.2   246  ARG246      0.2260
    146  O         27.2900   -8.1430   -1.0360 O.2   246  ARG246     -0.2867
    147  CB        28.3780   -5.9110    0.7300 C.3   246  ARG246      0.0307
    148  CG        28.2290   -6.7170    1.9660 C.3   246  ARG246      0.0489
    149  CD        28.3860   -5.9880    3.2760 C.3   246  ARG246      0.2205
    150  NE        28.0960   -6.9980    4.2640 N.pl3 246  ARG246     -0.0865
    151  CZ        27.6050   -6.8240    5.4860 C.cat 246  ARG246      0.5346
    152  NH1       27.3320   -5.6110    5.9900 N.pl3 246  ARG246      0.1354
    153  NH2       27.3990   -7.9190    6.2040 N.pl3 246  ARG246      0.1354
    154  N         27.6690  -11.3890    1.9770 N.3   248  ASP248     -0.1239
    155  CA        27.8380  -12.1700    3.1900 C.3   248  ASP248      0.1674
    156  C         28.0670  -13.6510    2.8860 C.2   248  ASP248      0.2266
    157  O         27.3330  -14.2810    2.1450 O.2   248  ASP248     -0.2867
    158  CB        26.6500  -12.0050    4.1040 C.3   248  ASP248      0.1410
    159  CG        26.5830  -10.6240    4.7030 C.2   248  ASP248      0.3668
    160  OD1       25.4400  -10.1020    4.8770 O.co2 248  ASP248     -0.2456
    161  OD2       27.6320   -9.9930    5.0270 O.co2 248  ASP248     -0.2456
    162  N         30.7170  -12.6210    7.8450 N.3   284  GLN284     -0.1245
    163  CA        29.8030  -11.6140    7.3660 C.3   284  GLN284      0.1566
    164  C         30.7050  -10.6400    6.7090 C.2   284  GLN284      0.2260
    165  O         31.8360  -10.5110    7.1030 O.2   284  GLN284     -0.2867
    166  CB        28.9460  -11.0300    8.4580 C.3   284  GLN284      0.0367
    167  CG        29.3660   -9.7350    9.0380 C.3   284  GLN284      0.0905
    168  CD        28.7670   -9.6230   10.4210 C.2   284  GLN284      0.2608
    169  OE1       29.2160  -10.3450   11.3340 O.2   284  GLN284     -0.2717
    170  NE2       27.7230   -8.7960   10.5810 N.am  284  GLN284     -0.0878
    171  N         36.3080   -6.9440   11.9900 N.3   315  ARG315     -0.1245
    172  CA        36.7470   -6.0810   10.9270 C.3   315  ARG315      0.1563
    173  C         38.0350   -5.3890   11.3170 C.2   315  ARG315      0.2260
    174  O         38.1290   -4.1810   11.3350 O.2   315  ARG315     -0.2867
    175  CB        35.6320   -5.1110   10.5690 C.3   315  ARG315      0.0307
    176  CG        34.4520   -5.8210    9.9560 C.3   315  ARG315      0.0489
    177  CD        33.1570   -5.0890   10.0850 C.3   315  ARG315      0.2205
    178  NE        31.9980   -5.8010    9.5750 N.pl3 315  ARG315     -0.0865
    179  CZ        30.7460   -5.3100    9.6540 C.cat 315  ARG315      0.5346
    180  NH1       30.5680   -4.1260   10.2170 N.pl3 315  ARG315      0.1354
    181  NH2       29.6750   -5.9690    9.1780 N.pl3 315  ARG315      0.1354
    182  N         33.3730    0.0540    8.5630 N.3   343  TYR343     -0.1241
    183  CA        33.0350    0.7770    7.3420 C.3   343  TYR343      0.1605
    184  C         33.9680    1.9960    7.1680 C.2   343  TYR343      0.2264
    185  O         34.1740    2.7120    8.1060 O.2   343  TYR343     -0.2867
    186  CB        31.6000    1.2720    7.4310 C.3   343  TYR343      0.0534
    187  CG        30.4620    0.2740    7.2720 C.ar  343  TYR343     -0.0201
    188  CD1       30.6010   -1.0810    7.5500 C.ar  343  TYR343     -0.0009
    189  CD2       29.2270    0.7130    6.8730 C.ar  343  TYR343     -0.0009
    190  CE1       29.5260   -1.9610    7.4250 C.ar  343  TYR343      0.0417
    191  CE2       28.1580   -0.1540    6.7340 C.ar  343  TYR343      0.0417
    192  CZ        28.3030   -1.4810    7.0120 C.ar  343  TYR343      0.1957
    193  OH        27.2220   -2.2990    6.8330 O.3   343  TYR343     -0.2866
@<TRIPOS>BOND
     1   119   120    1
     2   120   121    1
     3   120   123    1
     4   121   122    2
     5   143   144    1
     6   128   129    1
     7   136   137    2
     8   136   135    1
     9   123   124    1
    10   115   114    2
    11   146   145    2
    12   131   130    2
    13   129   130    1
    14   129   132    1
    15   130   134   am
    16   145   144    1
    17   144   147    1
    18   114   113    1
    19   134   135    1
    20   135   138    1
    21   112   113    1
    22   124   125    1
    23   147   148    1
    24   113   116    1
    25   132   133    1
    26   125   127   am
    27   125   126    2
    28   138   139    1
    29   104   103   ar
    30   104   102   ar
    31   148   149    1
    32   154   155    1
    33   157   156    2
    34   116   117    1
    35   116   118    1
    36   103   101   ar
    37   139   140    1
    38   102   100   ar
    39   156   155    1
    40   155   158    1
    41   149   150    1
    42   101    98   ar
    43    69    68    2
    44   140   141   ar
    45   140   142   ar
    46   158   159    1
    47   100    98   ar
    48   100    99   ar
    49   150   151    2
    50   111   109    1
    51    98    96   ar
    52   159   160   ar
    53   159   161   ar
    54    68    67    1
    55   109   106    1
    56   109   110    1
    57    99    97   ar
    58   108   107    2
    59   106   107    1
    60   106   105    1
    61   151   152    1
    62   151   153    1
    63    70    67    1
    64    70    71    1
    65    96    97   ar
    66    96    95    1
    67    94    93    2
    68    67    66    1
    69   105    93   am
    70    61    60    2
    71    73    71   ar
    72    93    92    1
    73   164   165    2
    74   164   163    1
    75   191   189   ar
    76   191   192   ar
    77    95    92    1
    78    71    72   ar
    79   193   192    1
    80   189   187   ar
    81   192   190   ar
    82    18    16    1
    83   184   183    1
    84   184   185    2
    85   187   186    1
    86   187   188   ar
    87    84    83   ar
    88    84    82   ar
    89   183   186    1
    90   183   182    1
    91   163   162    1
    92   163   166    1
    93    66    60   am
    94   190   188   ar
    95    60    59    1
    96    83    81   ar
    97    92    91    1
    98    15    14    2
    99    82    80   ar
   100    14    13    1
   101   166   167    1
   102    81    79   ar
   103    16    13    1
   104    16    17    1
   105    91    87   am
   106    13    12    1
   107    59    58    1
   108    59    62    1
   109   167   168    1
   110   181   179    1
   111    63    62    1
   112    63    64    1
   113    80    79   ar
   114    19    17    1
   115    79    78    1
   116    88    87    2
   117   178   179    2
   118   178   177    1
   119    74    75    1
   120   179   180    1
   121    87    86    1
   122   176   177    1
   123   176   175    1
   124    12     3   am
   125    75    78    1
   126    75    76    1
   127    65    64    1
   128    90    89    1
   129   168   170   am
   130   168   169    2
   131   175   172    1
   132    50    49    2
   133    89    86    1
   134   172   173    1
   135   172   171    1
   136    10     9    1
   137    86    85    1
   138     4     3    2
   139     3     2    1
   140   173   174    2
   141    76    77    2
   142    49    48    1
   143    37    36   ar
   144     9    11    1
   145     9     8    2
   146    30    28    1
   147    57    55    1
   148    36    38   ar
   149    36    35    1
   150     2     5    1
   151     2     1    1
   152     8     7    1
   153    54    55    2
   154    54    53    1
   155    52    51    1
   156    52    53    1
   157     5     6    1
   158    55    56    1
   159    48    51    1
   160    48    47    1
   161    28    27    2
   162    28    29    1
   163    35    32    1
   164    45    44    2
   165    27    26    1
   166     7     6    1
   167    34    33    2
   168    32    33    1
   169    32    31    1
   170    33    39   am
   171    44    46   am
   172    44    43    1
   173    39    40    1
   174    26    25    1
   175    40    43    1
   176    40    41    1
   177    25    24    1
   178    20    21    1
   179    41    42    2
   180    24    21    1
   181    21    22    1
   182    22    23    2
