@<TRIPOS>MOLECULE
tmp/1mzcB02.pdb
 179 178 0 0 0
SMALL
GASTEIGER

@<TRIPOS>ATOM
      1  N         13.1470  143.8930   -4.4200 N.3    80  LEU80      -0.1245
      2  CA        12.3620  142.7260   -4.8050 C.3    80  LEU80       0.1561
      3  C         11.2990  143.0690   -5.8440 C.2    80  LEU80       0.2260
      4  O         10.3380  142.3200   -6.0320 O.2    80  LEU80      -0.2867
      5  CB        11.6960  142.1110   -3.5670 C.3    80  LEU80       0.0270
      6  CG        12.6670  141.4720   -2.5690 C.3    80  LEU80       0.0019
      7  CD1       11.9180  140.9790   -1.3350 C.3    80  LEU80       0.0001
      8  CD2       13.3840  140.3210   -3.2450 C.3    80  LEU80       0.0001
      9  N         10.4590  140.3850   -8.1410 N.3    83  SER83      -0.1217
     10  CA        10.0550  139.1360   -7.4860 C.3    83  SER83       0.1889
     11  C          8.7290  139.2780   -6.7420 C.2    83  SER83       0.2288
     12  O          8.5230  138.6350   -5.7130 O.2    83  SER83      -0.2866
     13  CB        11.1250  138.6940   -6.4760 C.3    83  SER83       0.2089
     14  OG        12.3800  138.4830   -7.1000 O.3    83  SER83      -0.2183
     15  N          6.7510  136.3010   -5.7960 N.3    86  TRP86      -0.1241
     16  CA         7.3480  135.6030   -4.6540 C.3    86  TRP86       0.1605
     17  C          6.7510  136.1270   -3.3510 C.2    86  TRP86       0.2264
     18  O          6.4650  135.3590   -2.4260 O.2    86  TRP86      -0.2867
     19  CB         8.8720  135.7870   -4.6260 C.3    86  TRP86       0.0550
     20  CG         9.5950  134.8420   -5.5330 C.ar   86  TRP86       0.0003
     21  CD1       10.1380  135.1230   -6.7560 C.ar   86  TRP86       0.0946
     22  CD2        9.8060  133.4420   -5.3130 C.ar   86  TRP86       0.0152
     23  NE1       10.6730  133.9830   -7.3100 N.ar   86  TRP86      -0.2442
     24  CE2       10.4820  132.9370   -6.4450 C.ar   86  TRP86       0.0810
     25  CE3        9.4850  132.5660   -4.2660 C.ar   86  TRP86       0.0012
     26  CZ2       10.8450  131.5900   -6.5620 C.ar   86  TRP86       0.0191
     27  CZ3        9.8450  131.2240   -4.3830 C.ar   86  TRP86       0.0001
     28  CH2       10.5190  130.7530   -5.5240 C.ar   86  TRP86       0.0015
     29  N          5.0740  133.6830   -0.6960 N.3    90  TRP90      -0.1241
     30  CA         5.5720  133.5700    0.6780 C.3    90  TRP90       0.1605
     31  C          4.4970  133.9200    1.7040 C.2    90  TRP90       0.2264
     32  O          4.3270  133.2260    2.7080 O.2    90  TRP90      -0.2867
     33  CB         6.7650  134.5030    0.9240 C.3    90  TRP90       0.0550
     34  CG         8.0000  134.1950    0.1430 C.ar   90  TRP90       0.0003
     35  CD1        8.4740  132.9610   -0.2070 C.ar   90  TRP90       0.0946
     36  CD2        8.9490  135.1460   -0.3510 C.ar   90  TRP90       0.0152
     37  NE1        9.6630  133.0880   -0.8890 N.ar   90  TRP90      -0.2442
     38  CE2        9.9760  134.4190   -0.9920 C.ar   90  TRP90       0.0810
     39  CE3        9.0310  136.5450   -0.3130 C.ar   90  TRP90       0.0012
     40  CZ2       11.0730  135.0440   -1.5930 C.ar   90  TRP90       0.0191
     41  CZ3       10.1220  137.1660   -0.9100 C.ar   90  TRP90       0.0001
     42  CH2       11.1270  136.4150   -1.5420 C.ar   90  TRP90       0.0015
     43  N         10.1450  134.5180  -16.1770 N.3   133  HIS133     -0.1241
     44  CA        11.3270  133.9370  -15.5490 C.3   133  HIS133      0.1621
     45  C         10.8120  132.7520  -14.7360 C.2   133  HIS133      0.2264
     46  O          9.7470  132.8400  -14.1180 O.2   133  HIS133     -0.2867
     47  CB        11.9700  135.0090  -14.6560 C.3   133  HIS133      0.0745
     48  CG        13.2850  134.6170  -14.0570 C.ar  133  HIS133      0.0817
     49  ND1       13.4050  133.6390  -13.0940 N.ar  133  HIS133     -0.2268
     50  CD2       14.5290  135.1220  -14.2370 C.ar  133  HIS133      0.1154
     51  CE1       14.6640  133.5630  -12.7010 C.ar  133  HIS133      0.1986
     52  NE2       15.3670  134.4520  -13.3790 N.ar  133  HIS133     -0.2212
     53  N         11.6770  131.4840  -11.8800 N.3   135  ALA135     -0.1231
     54  CA        11.5220  131.6850  -10.4410 C.3   135  ALA135      0.1679
     55  C         10.1430  132.2650  -10.1270 C.2   135  ALA135      0.2434
     56  O          9.3670  131.6550   -9.3910 O.2   135  ALA135     -0.2733
     57  CB        12.6330  132.5880   -9.9030 C.3   135  ALA135      0.0304
     58  N          9.8140  133.4550  -10.6730 N.am  136  PRO136     -0.2729
     59  CA         8.4850  134.0110  -10.3810 C.3   136  PRO136      0.1401
     60  C          7.3420  133.1730  -10.9790 C.2   136  PRO136      0.2269
     61  O          6.2110  133.2200  -10.4970 O.2   136  PRO136     -0.2865
     62  CB         8.5580  135.4260  -10.9670 C.3   136  PRO136      0.0296
     63  CG         9.5850  135.2980  -12.0700 C.3   136  PRO136      0.0237
     64  CD        10.6360  134.4220  -11.4240 C.3   136  PRO136      0.0939
     65  N         18.0290  125.0360   -9.9990 N.3   186  ARG186     -0.1245
     66  CA        16.7580  125.6650   -9.6440 C.3   186  ARG186      0.1563
     67  C         15.7730  125.6440  -10.8120 C.2   186  ARG186      0.2260
     68  O         14.5680  125.4690  -10.6100 O.2   186  ARG186     -0.2867
     69  CB        16.9670  127.1170   -9.2090 C.3   186  ARG186      0.0307
     70  CG        17.8160  127.3110   -7.9560 C.3   186  ARG186      0.0489
     71  CD        18.1170  128.7960   -7.7770 C.3   186  ARG186      0.2205
     72  NE        18.7190  129.3470   -8.9930 N.pl3 186  ARG186     -0.0865
     73  CZ        18.6490  130.6240   -9.3600 C.cat 186  ARG186      0.5346
     74  NH1       18.0030  131.5100   -8.6040 N.pl3 186  ARG186      0.1354
     75  NH2       19.2070  131.0130  -10.5000 N.pl3 186  ARG186      0.1354
     76  N         24.8560  122.3650   -1.7480 N.3   232  HIS232     -0.1241
     77  CA        24.1240  123.3640   -0.9820 C.3   232  HIS232      0.1621
     78  C         22.6650  122.9480   -0.8010 C.2   232  HIS232      0.2264
     79  O         22.0500  122.3980   -1.7170 O.2   232  HIS232     -0.2867
     80  CB        24.1980  124.7230   -1.6850 C.3   232  HIS232      0.0745
     81  CG        23.8490  125.8770   -0.7980 C.ar  232  HIS232      0.0817
     82  ND1       22.5600  126.1370   -0.3830 N.ar  232  HIS232     -0.2268
     83  CD2       24.6320  126.8070   -0.1980 C.ar  232  HIS232      0.1154
     84  CE1       22.5650  127.1740    0.4360 C.ar  232  HIS232      0.1986
     85  NE2       23.8100  127.5980    0.5660 N.ar  232  HIS232     -0.2212
     86  N         20.1000  124.1170   -3.5980 N.3   235  TYR235     -0.1241
     87  CA        20.1790  123.3630   -4.8400 C.3   235  TYR235      0.1605
     88  C         19.8480  121.8880   -4.6410 C.2   235  TYR235      0.2264
     89  O         19.3010  121.2490   -5.5380 O.2   235  TYR235     -0.2867
     90  CB        21.5800  123.5110   -5.4480 C.3   235  TYR235      0.0534
     91  CG        21.8980  124.9260   -5.8840 C.ar  235  TYR235     -0.0201
     92  CD1       23.0550  125.5700   -5.4470 C.ar  235  TYR235     -0.0009
     93  CD2       21.0500  125.6120   -6.7520 C.ar  235  TYR235     -0.0009
     94  CE1       23.3620  126.8680   -5.8700 C.ar  235  TYR235      0.0417
     95  CE2       21.3450  126.9070   -7.1810 C.ar  235  TYR235      0.0417
     96  CZ        22.5010  127.5260   -6.7390 C.ar  235  TYR235      0.1957
     97  OH        22.7990  128.7980   -7.1810 O.3   235  TYR235     -0.2866
     98  N         20.8210  128.6530    9.7740 N.3   281  ASP281     -0.1239
     99  CA        19.9040  129.6390    9.2080 C.3   281  ASP281      0.1674
    100  C         18.4890  129.0660    9.1860 C.2   281  ASP281      0.2266
    101  O         18.2540  127.9720    8.6700 O.2   281  ASP281     -0.2867
    102  CB        20.3430  130.0060    7.7820 C.3   281  ASP281      0.1410
    103  CG        19.4320  131.0410    7.1260 C.2   281  ASP281      0.3668
    104  OD1       18.2950  131.2490    7.6050 O.co2 281  ASP281     -0.2456
    105  OD2       19.8540  131.6350    6.1080 O.co2 281  ASP281     -0.2456
    106  N         15.8440  129.5130    7.3790 N.3   283  CYS283     -0.1221
    107  CA        15.2010  129.0850    6.1360 C.3   283  CYS283      0.1808
    108  C         15.5920  127.6620    5.7330 C.2   283  CYS283      0.2601
    109  O         14.8290  126.9800    5.0490 O.2   283  CYS283     -0.2717
    110  CB        15.4960  130.0660    4.9900 C.3   283  CYS283      0.0970
    111  SG        17.2050  130.1080    4.4220 S.3   283  CYS283     -0.0800
    112  N         16.7700  127.2030    6.1540 N.am  284  TYR284     -0.1976
    113  CA        17.1800  125.8460    5.8110 C.3   284  TYR284      0.1639
    114  C         16.3170  124.8370    6.5680 C.2   284  TYR284      0.2290
    115  O         16.4250  123.6330    6.3560 O.2   284  TYR284     -0.2864
    116  CB        18.6770  125.6410    6.0930 C.3   284  TYR284      0.0560
    117  CG        19.5430  126.5080    5.2020 C.ar  284  TYR284     -0.0198
    118  CD1       20.6090  127.2440    5.7230 C.ar  284  TYR284     -0.0009
    119  CD2       19.2420  126.6560    3.8480 C.ar  284  TYR284     -0.0009
    120  CE1       21.3430  128.1150    4.9140 C.ar  284  TYR284      0.0417
    121  CE2       19.9670  127.5170    3.0360 C.ar  284  TYR284      0.0417
    122  CZ        21.0120  128.2470    3.5720 C.ar  284  TYR284      0.1957
    123  OH        21.6990  129.1260    2.7620 O.3   284  TYR284     -0.2866
    124  N         14.5590  124.0260    3.2630 N.3   287  TRP287     -0.1241
    125  CA        15.4330  123.5320    2.1970 C.3   287  TRP287      0.1605
    126  C         16.1730  122.2400    2.5460 C.2   287  TRP287      0.2264
    127  O         16.2700  121.3380    1.7080 O.2   287  TRP287     -0.2867
    128  CB        16.4460  124.6080    1.7850 C.3   287  TRP287      0.0550
    129  CG        15.8350  125.9170    1.3340 C.ar  287  TRP287      0.0003
    130  CD1       16.0450  127.1510    1.8880 C.ar  287  TRP287      0.0946
    131  CD2       14.9250  126.1190    0.2430 C.ar  287  TRP287      0.0152
    132  NE1       15.3260  128.1070    1.2110 N.ar  287  TRP287     -0.2442
    133  CE2       14.6290  127.5040    0.1970 C.ar  287  TRP287      0.0810
    134  CE3       14.3300  125.2680   -0.7010 C.ar  287  TRP287      0.0012
    135  CZ2       13.7620  128.0580   -0.7550 C.ar  287  TRP287      0.0191
    136  CZ3       13.4640  125.8200   -1.6530 C.ar  287  TRP287      0.0001
    137  CH2       13.1910  127.2040   -1.6690 C.ar  287  TRP287      0.0015
    138  N         16.3380  134.4540    9.9080 N.3   336  ASP336     -0.1239
    139  CA        17.5320  133.6240    9.7500 C.3   336  ASP336      0.1674
    140  C         18.1230  133.1790   11.0940 C.2   336  ASP336      0.2266
    141  O         18.2090  131.9800   11.3880 O.2   336  ASP336     -0.2867
    142  CB        18.5450  134.4350    8.9180 C.3   336  ASP336      0.1410
    143  CG        19.9650  133.8960    8.9850 C.2   336  ASP336      0.3668
    144  OD1       20.2460  132.9280    9.7150 O.co2 336  ASP336     -0.2456
    145  OD2       20.8210  134.4760    8.2910 O.co2 336  ASP336     -0.2456
    146  N         10.5330  136.0960    3.2510 N.3   345  TYR345     -0.1227
    147  CA        11.1780  134.8770    2.7820 C.3   345  TYR345      0.1736
    148  C         11.4400  133.9550    3.9790 C.2   345  TYR345      0.2595
    149  O         11.0620  132.7810    3.9620 O.2   345  TYR345     -0.2718
    150  CB        12.4920  135.2260    2.0800 C.3   345  TYR345      0.0548
    151  CG        13.4450  134.0620    1.9080 C.ar  345  TYR345     -0.0200
    152  CD1       13.4040  133.2540    0.7700 C.ar  345  TYR345     -0.0009
    153  CD2       14.4080  133.7820    2.8820 C.ar  345  TYR345     -0.0009
    154  CE1       14.3040  132.1990    0.6030 C.ar  345  TYR345      0.0417
    155  CE2       15.3090  132.7260    2.7270 C.ar  345  TYR345      0.0417
    156  CZ        15.2540  131.9440    1.5890 C.ar  345  TYR345      0.1957
    157  OH        16.1580  130.9170    1.4340 O.3   345  TYR345     -0.2866
    158  N         12.0820  134.4840    5.0200 N.am  346  HIS346     -0.1975
    159  CA        12.3610  133.6680    6.1940 C.3   346  HIS346      0.1656
    160  C         11.0960  133.3060    6.9560 C.2   346  HIS346      0.2291
    161  O         11.0320  132.2590    7.5980 O.2   346  HIS346     -0.2864
    162  CB        13.3770  134.3550    7.1160 C.3   346  HIS346      0.0771
    163  CG        14.7850  134.2720    6.6090 C.ar  346  HIS346      0.0820
    164  ND1       15.3820  135.2860    5.8930 N.ar  346  HIS346     -0.2267
    165  CD2       15.6810  133.2560    6.6400 C.ar  346  HIS346      0.1154
    166  CE1       16.5820  134.8990    5.5010 C.ar  346  HIS346      0.1986
    167  NE2       16.7880  133.6700    5.9390 N.ar  346  HIS346     -0.2212
    168  N          9.7580  130.1770    4.9200 N.3   349  TYR349     -0.1241
    169  CA        10.5210  128.9490    5.0980 C.3   349  TYR349      0.1605
    170  C         10.7180  128.4600    6.5280 C.2   349  TYR349      0.2264
    171  O         10.8420  127.2540    6.7430 O.2   349  TYR349     -0.2867
    172  CB        11.8400  129.0530    4.3290 C.3   349  TYR349      0.0534
    173  CG        11.5610  129.1140    2.8450 C.ar  349  TYR349     -0.0201
    174  CD1       11.6650  130.3140    2.1370 C.ar  349  TYR349     -0.0009
    175  CD2       11.0790  127.9940    2.1700 C.ar  349  TYR349     -0.0009
    176  CE1       11.2870  130.3940    0.7960 C.ar  349  TYR349      0.0417
    177  CE2       10.6990  128.0630    0.8330 C.ar  349  TYR349      0.0417
    178  CZ        10.8010  129.2630    0.1530 C.ar  349  TYR349      0.1957
    179  OH        10.4020  129.3330   -1.1630 O.3   349  TYR349     -0.2866
@<TRIPOS>BOND
     1    43    44    1
     2    44    45    1
     3    44    47    1
     4    45    46    2
     5    47    48    1
     6    50    48   ar
     7    50    52   ar
     8    48    49   ar
     9    52    51   ar
    10    49    51   ar
    11    63    64    1
    12    63    62    1
    13    53    54    1
    14    64    58    1
    15    60    61    2
    16    60    59    1
    17    62    59    1
    18    67    68    2
    19    67    66    1
    20    58    59    1
    21    58    55   am
    22    75    73    1
    23    54    55    1
    24    54    57    1
    25    55    56    2
    26    65    66    1
    27    66    69    1
    28    73    72    2
    29    73    74    1
    30    69    70    1
    31    72    71    1
    32     9    10    1
    33    70    71    1
    34    10    11    1
    35    10    13    1
    36    23    21   ar
    37    23    24   ar
    38    95    93   ar
    39    95    96   ar
    40    97    96    1
    41    14    13    1
    42    21    20   ar
    43    93    91   ar
    44    11    12    2
    45    96    94   ar
    46    26    24   ar
    47    26    28   ar
    48    24    22   ar
    49     4     3    2
    50    91    90    1
    51    91    92   ar
    52    94    92   ar
    53     3     2    1
    54    15    16    1
    55    89    88    2
    56    20    22   ar
    57    20    19    1
    58    28    27   ar
    59    90    87    1
    60    22    25   ar
    61    87    88    1
    62    87    86    1
    63     2     1    1
    64     2     5    1
    65    16    19    1
    66    16    17    1
    67    27    25   ar
    68     5     6    1
    69    17    18    2
    70     8     6    1
    71     6     7    1
    72    76    77    1
    73    79    78    2
    74    80    77    1
    75    80    81    1
    76   137   136   ar
    77   137   135   ar
    78   136   134   ar
    79    40    42   ar
    80    40    38   ar
    81    42    41   ar
    82   179   178    1
    83    38    37   ar
    84    38    36   ar
    85    77    78    1
    86    41    39   ar
    87    37    35   ar
    88    81    82   ar
    89    81    83   ar
    90   135   133   ar
    91   134   131   ar
    92    29    30    1
    93    82    84   ar
    94    36    39   ar
    95    36    34   ar
    96    35    34   ar
    97    83    85   ar
    98    34    33    1
    99   178   176   ar
   100   178   177   ar
   101   133   131   ar
   102   133   132   ar
   103   131   129   ar
   104    84    85   ar
   105   154   152   ar
   106   154   156   ar
   107    30    33    1
   108    30    31    1
   109   152   151   ar
   110   176   174   ar
   111   177   175   ar
   112   132   130   ar
   113   129   128    1
   114   129   130   ar
   115   157   156    1
   116   156   155   ar
   117    31    32    2
   118   127   126    2
   119   128   125    1
   120   151   150    1
   121   151   153   ar
   122   150   147    1
   123   174   173   ar
   124   175   173   ar
   125   125   126    1
   126   125   124    1
   127   155   153   ar
   128   123   122    1
   129   147   146    1
   130   147   148    1
   131   173   172    1
   132   121   122   ar
   133   121   119   ar
   134   122   120   ar
   135   119   117   ar
   136   149   148    2
   137   148   158   am
   138   172   169    1
   139   111   110    1
   140   120   118   ar
   141   168   169    1
   142   110   107    1
   143   158   159    1
   144   109   108    2
   145   169   170    1
   146   117   118   ar
   147   117   116    1
   148   166   164   ar
   149   166   167   ar
   150   108   107    1
   151   108   112   am
   152   113   116    1
   153   113   112    1
   154   113   114    1
   155   164   163   ar
   156   167   165   ar
   157   105   103   ar
   158   107   106    1
   159   159   160    1
   160   159   162    1
   161   115   114    2
   162   170   171    2
   163   163   165   ar
   164   163   162    1
   165   160   161    2
   166   103   104   ar
   167   103   102    1
   168   102    99    1
   169   145   143   ar
   170   101   100    2
   171   142   143    1
   172   142   139    1
   173   143   144   ar
   174   100    99    1
   175    99    98    1
   176   139   138    1
   177   139   140    1
   178   140   141    2
