@<TRIPOS>MOLECULE
tmp/1mzeA00.pdb
 142 134 0 0 0
SMALL
GASTEIGER

@<TRIPOS>ATOM
      1  N         19.0300   29.5590   38.6970 N.3    90  TYR90      -0.1241
      2  CA        20.0820   28.6290   39.0890 C.3    90  TYR90       0.1605
      3  C         21.1910   29.4260   39.7680 C.2    90  TYR90       0.2264
      4  O         21.3110   30.6340   39.5600 O.2    90  TYR90      -0.2867
      5  CB        20.6690   27.9070   37.8760 C.3    90  TYR90       0.0534
      6  CG        19.7100   27.0140   37.1120 C.ar   90  TYR90      -0.0201
      7  CD1       19.1880   27.4140   35.8740 C.ar   90  TYR90      -0.0009
      8  CD2       19.3950   25.7320   37.5760 C.ar   90  TYR90      -0.0009
      9  CE1       18.3880   26.5520   35.1120 C.ar   90  TYR90       0.0417
     10  CE2       18.5970   24.8650   36.8240 C.ar   90  TYR90       0.0417
     11  CZ        18.1030   25.2810   35.5920 C.ar   90  TYR90       0.1957
     12  OH        17.3540   24.4140   34.8280 O.3    90  TYR90      -0.2866
     13  N         12.1000   21.0240   36.2740 N.3   133  TYR133     -0.1241
     14  CA        13.0520   20.7940   35.2070 C.3   133  TYR133      0.1605
     15  C         13.9340   19.6430   35.6570 C.2   133  TYR133      0.2264
     16  O         14.5780   19.7340   36.6930 O.2   133  TYR133     -0.2867
     17  CB        13.8900   22.0640   35.0040 C.3   133  TYR133      0.0534
     18  CG        14.0190   22.5360   33.5730 C.ar  133  TYR133     -0.0201
     19  CD1       14.1510   23.8990   33.2780 C.ar  133  TYR133     -0.0009
     20  CD2       14.0550   21.6280   32.5150 C.ar  133  TYR133     -0.0009
     21  CE1       14.3180   24.3430   31.9600 C.ar  133  TYR133      0.0417
     22  CE2       14.2240   22.0590   31.1950 C.ar  133  TYR133      0.0417
     23  CZ        14.3590   23.4140   30.9230 C.ar  133  TYR133      0.1957
     24  OH        14.5700   23.8260   29.6200 O.3   133  TYR133     -0.2866
     25  N         17.2080   17.2700   35.1350 N.3   135  GLN135     -0.1245
     26  CA        18.5230   17.3400   34.5000 C.3   135  GLN135      0.1566
     27  C         19.4130   16.1960   34.9300 C.2   135  GLN135      0.2260
     28  O         19.7330   16.0810   36.1100 O.2   135  GLN135     -0.2867
     29  CB        19.2040   18.6450   34.8670 C.3   135  GLN135      0.0367
     30  CG        18.4430   19.8710   34.4200 C.3   135  GLN135      0.0905
     31  CD        19.2390   21.1330   34.6510 C.2   135  GLN135      0.2608
     32  OE1       20.4620   21.1450   34.4590 O.2   135  GLN135     -0.2717
     33  NE2       18.5570   22.2100   35.0550 N.am  135  GLN135     -0.0878
     34  N         24.1780   16.3110   29.0760 N.3   174  LEU174     -0.1245
     35  CA        22.9400   16.3130   29.8430 C.3   174  LEU174      0.1561
     36  C         21.6000   16.1240   29.1300 C.2   174  LEU174      0.2260
     37  O         21.3510   16.6760   28.0540 O.2   174  LEU174     -0.2867
     38  CB        22.8270   17.6100   30.6470 C.3   174  LEU174      0.0270
     39  CG        23.9100   17.9650   31.6620 C.3   174  LEU174      0.0019
     40  CD1       23.4700   19.2460   32.3530 C.3   174  LEU174      0.0001
     41  CD2       24.1170   16.8280   32.6950 C.3   174  LEU174      0.0001
     42  N         17.6920   16.8830   29.3950 N.3   176  LEU176     -0.1245
     43  CA        16.8360   17.8720   30.0530 C.3   176  LEU176      0.1561
     44  C         15.3780   17.6630   29.6720 C.2   176  LEU176      0.2260
     45  O         15.0480   17.5260   28.4930 O.2   176  LEU176     -0.2867
     46  CB        17.2250   19.3010   29.6770 C.3   176  LEU176      0.0270
     47  CG        18.5630   19.9400   30.0580 C.3   176  LEU176      0.0019
     48  CD1       19.6590   19.4940   29.1100 C.3   176  LEU176      0.0001
     49  CD2       18.4060   21.4670   29.9710 C.3   176  LEU176      0.0001
     50  N         14.8820   29.4500   30.8630 N.3   184  THR184     -0.1218
     51  CA        16.1930   29.4800   31.5040 C.3   184  THR184      0.1862
     52  C         16.7090   30.8640   31.1150 C.2   184  THR184      0.2287
     53  O         16.9830   31.1120   29.9380 O.2   184  THR184     -0.2866
     54  CB        17.1460   28.4080   30.9620 C.3   184  THR184      0.1770
     55  OG1       16.6530   27.1190   31.3210 O.3   184  THR184     -0.2211
     56  CG2       18.5260   28.5540   31.5830 C.3   184  THR184      0.0375
     57  N         22.3600   33.6860   29.9030 N.3   187  HIS187     -0.1241
     58  CA        23.6490   33.4670   30.5400 C.3   187  HIS187      0.1621
     59  C         24.5610   32.9310   29.4750 C.2   187  HIS187      0.2264
     60  O         24.1070   32.5730   28.3940 O.2   187  HIS187     -0.2867
     61  CB        23.5430   32.4440   31.6570 C.3   187  HIS187      0.0745
     62  CG        23.1910   31.0790   31.1730 C.ar  187  HIS187      0.0817
     63  ND1       21.9240   30.7490   30.7480 N.ar  187  HIS187     -0.2268
     64  CD2       23.9540   29.9770   30.9820 C.ar  187  HIS187      0.1154
     65  CE1       21.9220   29.5030   30.3130 C.ar  187  HIS187      0.1986
     66  NE2       23.1410   29.0140   30.4430 N.ar  187  HIS187     -0.2212
     67  N         28.1730   30.3410   28.7040 N.3   189  ASP189     -0.1239
     68  CA        28.9360   29.2100   29.2410 C.3   189  ASP189      0.1674
     69  C         30.3100   29.3370   28.6260 C.2   189  ASP189      0.2266
     70  O         30.4600   29.9300   27.5600 O.2   189  ASP189     -0.2867
     71  CB        28.3000   27.8730   28.8450 C.3   189  ASP189      0.1410
     72  CG        26.8960   27.6960   29.4230 C.2   189  ASP189      0.3668
     73  OD1       26.7500   27.7660   30.6670 O.co2 189  ASP189     -0.2456
     74  OD2       25.9270   27.4870   28.6490 O.co2 189  ASP189     -0.2456
     75  N         29.0010   24.2340   22.6400 N.3   193  ASN193     -0.1240
     76  CA        27.8030   23.4540   22.9140 C.3   193  ASN193      0.1653
     77  C         26.9580   23.0760   21.6890 C.2   193  ASN193      0.2266
     78  O         26.7770   23.8840   20.7790 O.2   193  ASN193     -0.2867
     79  CB        26.9500   24.2560   23.9030 C.3   193  ASN193      0.1155
     80  CG        25.6170   23.5960   24.2510 C.2   193  ASN193      0.2627
     81  OD1       25.4070   22.3930   24.0560 O.2   193  ASN193     -0.2716
     82  ND2       24.7110   24.3910   24.8090 N.am  193  ASN193     -0.0877
     83  N         23.2180   21.6340   21.1160 N.3   195  PHE195     -0.1241
     84  CA        21.9230   21.5470   21.7780 C.3   195  PHE195      0.1605
     85  C         21.0180   20.7280   20.8410 C.2   195  PHE195      0.2264
     86  O         20.5340   21.2450   19.8270 O.2   195  PHE195     -0.2867
     87  CB        21.4510   23.0050   21.9280 C.3   195  PHE195      0.0534
     88  CG        20.1740   23.1940   22.6720 C.ar  195  PHE195     -0.0203
     89  CD1       20.1930   23.4800   24.0320 C.ar  195  PHE195     -0.0042
     90  CD2       18.9470   23.1680   22.0080 C.ar  195  PHE195     -0.0042
     91  CE1       19.0150   23.7410   24.7230 C.ar  195  PHE195     -0.0003
     92  CE2       17.7580   23.4290   22.6870 C.ar  195  PHE195     -0.0003
     93  CZ        17.7920   23.7180   24.0480 C.ar  195  PHE195     -0.0000
     94  N         11.5590   24.6050   21.4920 N.3   202  LYS202     -0.1245
     95  CA        12.1740   25.5940   22.3500 C.3   202  LYS202      0.1561
     96  C         12.6320   26.7950   21.5400 C.2   202  LYS202      0.2260
     97  O         13.2350   26.6470   20.4670 O.2   202  LYS202     -0.2867
     98  CB        13.3690   25.0030   23.0980 C.3   202  LYS202      0.0271
     99  CG        12.9870   24.1610   24.2930 C.3   202  LYS202      0.0035
    100  CD        14.2380   23.7470   25.0430 C.3   202  LYS202      0.0206
    101  CE        13.9090   23.1490   26.3730 C.3   202  LYS202      0.1093
    102  NZ        15.1760   22.6860   27.0250 N.3   202  LYS202     -0.1314
    103  N         22.6960   32.9520   25.8520 N.3   267  HIS267     -0.1241
    104  CA        21.5290   32.2770   25.3370 C.3   267  HIS267      0.1621
    105  C         20.4490   32.2830   26.3870 C.2   267  HIS267      0.2264
    106  O         20.6980   32.1610   27.5790 O.2   267  HIS267     -0.2867
    107  CB        21.8280   30.8490   24.8820 C.3   267  HIS267      0.0745
    108  CG        22.7260   30.1060   25.8020 C.ar  267  HIS267      0.0817
    109  ND1       24.0690   30.3860   25.9040 N.ar  267  HIS267     -0.2268
    110  CD2       22.4810   29.0920   26.6640 C.ar  267  HIS267      0.1154
    111  CE1       24.6180   29.5740   26.7890 C.ar  267  HIS267      0.1986
    112  NE2       23.6770   28.7800   27.2620 N.ar  267  HIS267     -0.2212
    113  N         16.7570   30.4860   26.8400 N.3   269  ILE269     -0.1245
    114  CA        16.0010   29.3530   26.3230 C.3   269  ILE269      0.1561
    115  C         14.6320   29.2520   26.9520 C.2   269  ILE269      0.2260
    116  O         14.4950   29.3130   28.1660 O.2   269  ILE269     -0.2867
    117  CB        16.7370   27.9990   26.6060 C.3   269  ILE269      0.0252
    118  CG1       18.2100   28.0880   26.1990 C.3   269  ILE269      0.0019
    119  CG2       16.0680   26.8670   25.8370 C.3   269  ILE269      0.0019
    120  CD1       18.4220   28.3590   24.7390 C.3   269  ILE269      0.0001
    121  N         22.0240   18.0530   25.7350 N.3   282  ASN282     -0.1240
    122  CA        23.1230   18.9510   25.3740 C.3   282  ASN282      0.1653
    123  C         24.4560   18.2400   25.4320 C.2   282  ASN282      0.2266
    124  O         24.6330   17.3280   26.2330 O.2   282  ASN282     -0.2867
    125  CB        23.2170   20.1620   26.3150 C.3   282  ASN282      0.1155
    126  CG        22.2980   21.3020   25.9040 C.2   282  ASN282      0.2627
    127  OD1       21.0990   21.2870   26.2050 O.2   282  ASN282     -0.2716
    128  ND2       22.8530   22.2980   25.2040 N.am  282  ASN282     -0.0877
    129  N         28.6120   19.3260   25.6500 N.3   284  TRP284     -0.1241
    130  CA        29.5600   20.4120   25.9010 C.3   284  TRP284      0.1605
    131  C         31.0010   19.9540   25.7030 C.2   284  TRP284      0.2264
    132  O         31.3790   18.8860   26.1670 O.2   284  TRP284     -0.2867
    133  CB        29.4070   20.9270   27.3360 C.3   284  TRP284      0.0550
    134  CG        28.2770   21.8810   27.5380 C.ar  284  TRP284      0.0003
    135  CD1       28.2150   23.2040   27.1390 C.ar  284  TRP284      0.0946
    136  CD2       27.0360   21.6010   28.1840 C.ar  284  TRP284      0.0152
    137  NE1       27.0040   23.7530   27.5060 N.ar  284  TRP284     -0.2442
    138  CE2       26.2640   22.7950   28.1490 C.ar  284  TRP284      0.0810
    139  CE3       26.4930   20.4550   28.7890 C.ar  284  TRP284      0.0012
    140  CZ2       24.9830   22.8700   28.6990 C.ar  284  TRP284      0.0191
    141  CZ3       25.2130   20.5310   29.3370 C.ar  284  TRP284      0.0001
    142  CH2       24.4740   21.7340   29.2870 C.ar  284  TRP284      0.0015
@<TRIPOS>BOND
     1    86    85    2
     2    97    96    2
     3    78    77    2
     4    85    84    1
     5    83    84    1
     6    94    95    1
     7    96    95    1
     8    77    76    1
     9    84    87    1
    10    87    88    1
    11    90    88   ar
    12    90    92   ar
    13    95    98    1
    14    75    76    1
    15    88    89   ar
    16    92    93   ar
    17    76    79    1
    18    98    99    1
    19    79    80    1
    20    89    91   ar
    21    93    91   ar
    22    81    80    2
    23    80    82   am
    24    99   100    1
    25   120   118    1
    26   107   104    1
    27   107   108    1
    28   100   101    1
    29   128   126   am
    30   104   103    1
    31   104   105    1
    32   122   123    1
    33   122   121    1
    34   122   125    1
    35   123   124    2
    36   129   130    1
    37   131   130    1
    38   131   132    2
    39   108   109   ar
    40   108   110   ar
    41   119   117    1
    42   130   133    1
    43   109   111   ar
    44   126   127    2
    45   126   125    1
    46   118   117    1
    47   114   117    1
    48   114   113    1
    49   114   115    1
    50   101   102    1
    51   105   106    2
    52   110   112   ar
    53   111   112   ar
    54   115   116    2
    55   135   137   ar
    56   135   134   ar
    57   133   134    1
    58   137   138   ar
    59   134   136   ar
    60    70    69    2
    61    37    36    2
    62   138   136   ar
    63   138   140   ar
    64   136   139   ar
    65    60    59    2
    66    45    44    2
    67    69    68    1
    68    74    72   ar
    69   140   142   ar
    70    67    68    1
    71   139   141   ar
    72    71    68    1
    73    71    72    1
    74    34    35    1
    75    48    47    1
    76    36    35    1
    77   142   141   ar
    78    42    43    1
    79    72    73   ar
    80    59    58    1
    81    24    23    1
    82    44    43    1
    83    46    43    1
    84    46    47    1
    85    35    38    1
    86    57    58    1
    87    53    52    2
    88    49    47    1
    89    65    66   ar
    90    65    63   ar
    91    66    64   ar
    92    58    61    1
    93    38    39    1
    94    63    62   ar
    95    50    51    1
    96    23    22   ar
    97    23    21   ar
    98    54    55    1
    99    54    51    1
   100    54    56    1
   101    64    62   ar
   102    52    51    1
   103    62    61    1
   104    22    20   ar
   105    39    40    1
   106    39    41    1
   107    21    19   ar
   108    20    18   ar
   109    19    18   ar
   110    18    17    1
   111    30    31    1
   112    30    29    1
   113    32    31    2
   114    26    29    1
   115    26    27    1
   116    26    25    1
   117    31    33   am
   118    12    11    1
   119    27    28    2
   120    17    14    1
   121     9    11   ar
   122     9     7   ar
   123    14    15    1
   124    14    13    1
   125    11    10   ar
   126    15    16    2
   127     7     6   ar
   128    10     8   ar
   129     6     8   ar
   130     6     5    1
   131     5     2    1
   132     1     2    1
   133     2     3    1
   134     4     3    2
