@<TRIPOS>MOLECULE
tmp/1mzjA00.pdb
 224 214 0 0 0
SMALL
GASTEIGER

@<TRIPOS>ATOM
      1  N         74.4380   20.0420   19.5640 N.3    33  ILE33      -0.1231
      2  CA        73.4560   20.0580   20.6420 C.3    33  ILE33       0.1692
      3  C         72.8270   18.7070   20.7580 C.2    33  ILE33       0.2592
      4  O         72.8470   17.9110   19.8190 O.2    33  ILE33      -0.2718
      5  CB        72.3020   21.0830   20.3850 C.3    33  ILE33       0.0266
      6  CG1       71.6310   20.7950   19.0330 C.3    33  ILE33       0.0019
      7  CG2       72.8370   22.5040   20.4210 C.3    33  ILE33       0.0020
      8  CD1       70.4730   21.7300   18.6710 C.3    33  ILE33       0.0001
      9  N         72.2490   18.4630   21.9190 N.am   34  ASP34      -0.1960
     10  CA        71.5890   17.2070   22.1850 C.3    34  ASP34       0.1840
     11  C         70.2060   17.2190   21.5180 C.2    34  ASP34       0.2622
     12  O         69.2130   17.6940   22.0970 O.2    34  ASP34      -0.2715
     13  CB        71.4690   17.0300   23.6930 C.3    34  ASP34       0.1450
     14  CG        70.9830   15.6760   24.0660 C.2    34  ASP34       0.3671
     15  OD1       70.6500   15.4970   25.2570 O.co2  34  ASP34      -0.2456
     16  OD2       70.9350   14.8000   23.1710 O.co2  34  ASP34      -0.2456
     17  N         70.1440   16.6870   20.3020 N.am   35  SER35      -0.1950
     18  CA        68.9000   16.6770   19.5530 C.3    35  SER35       0.1924
     19  C         68.9980   15.6470   18.4400 C.2    35  SER35       0.2314
     20  O         70.0310   14.9940   18.3270 O.2    35  SER35      -0.2863
     21  CB        68.7020   18.0680   18.9530 C.3    35  SER35       0.2116
     22  OG        67.5610   18.1460   18.1380 O.3    35  SER35      -0.2180
     23  N         63.5340   15.2950   15.1660 N.3    39  TRP39      -0.1241
     24  CA        62.9140   16.3020   16.0210 C.3    39  TRP39       0.1605
     25  C         62.9210   17.6870   15.3720 C.2    39  TRP39       0.2264
     26  O         61.9380   18.4170   15.3760 O.2    39  TRP39      -0.2867
     27  CB        63.6820   16.3450   17.3440 C.3    39  TRP39       0.0550
     28  CG        63.0170   17.2730   18.2870 C.ar   39  TRP39       0.0003
     29  CD1       62.0080   16.9480   19.2210 C.ar   39  TRP39       0.0946
     30  CD2       63.1970   18.7090   18.3590 C.ar   39  TRP39       0.0152
     31  NE1       61.5270   18.0410   19.8690 N.ar   39  TRP39      -0.2442
     32  CE2       62.2820   19.1970   19.3260 C.ar   39  TRP39       0.0810
     33  CE3       64.0370   19.6040   17.7010 C.ar   39  TRP39       0.0012
     34  CZ2       62.2260   20.5530   19.6030 C.ar   39  TRP39       0.0191
     35  CZ3       63.9830   20.9590   17.9800 C.ar   39  TRP39       0.0001
     36  CH2       63.0690   21.4360   18.9370 C.ar   39  TRP39       0.0015
     37  N         59.5600   19.6490   14.2010 N.3    43  ARG43      -0.1231
     38  CA        59.1700   20.8690   14.8980 C.3    43  ARG43       0.1694
     39  C         59.3460   22.1080   14.0170 C.2    43  ARG43       0.2592
     40  O         58.7080   23.1340   14.2110 O.2    43  ARG43      -0.2718
     41  CB        60.0320   20.9950   16.1550 C.3    43  ARG43       0.0321
     42  CG        59.8810   19.7920   17.0860 C.3    43  ARG43       0.0489
     43  CD        58.6960   19.9520   18.0460 C.3    43  ARG43       0.2205
     44  NE        58.5230   18.7430   18.8570 N.pl3  43  ARG43      -0.0865
     45  CZ        57.7240   18.8340   19.9360 C.cat  43  ARG43       0.5346
     46  NH1       57.1260   19.9780   20.2250 N.pl3  43  ARG43       0.1354
     47  NH2       57.5450   17.7660   20.7170 N.pl3  43  ARG43       0.1354
     48  N         60.2400   22.1150   13.0360 N.am   44  THR44      -0.1953
     49  CA        60.4350   23.3260   12.2890 C.3    44  THR44       0.1897
     50  C         60.2860   23.2120   10.7980 C.2    44  THR44       0.2313
     51  O         60.0230   24.2130   10.1750 O.2    44  THR44      -0.2863
     52  CB        61.8010   23.8810   12.5050 C.3    44  THR44       0.1794
     53  OG1       62.7550   22.9760   11.9300 O.3    44  THR44      -0.2208
     54  CG2       62.0350   24.1040   13.9600 C.3    44  THR44       0.0378
     55  N         62.3070   40.6580   12.9430 N.3   119  CYS119     -0.1235
     56  CA        61.8700   40.0010   11.7060 C.3   119  CYS119      0.1677
     57  C         60.9870   40.7940   10.7220 C.2   119  CYS119      0.2270
     58  O         60.7990   40.3790    9.5430 O.2   119  CYS119     -0.2867
     59  CB        61.1710   38.7000   12.0490 C.3   119  CYS119      0.0956
     60  SG        62.2180   37.4890   12.8450 S.3   119  CYS119     -0.0801
     61  N         72.2870   35.9320   11.9170 N.3   149  MET149     -0.1245
     62  CA        71.5720   35.5270   13.1450 C.3   149  MET149      0.1570
     63  C         72.5080   34.6430   13.9920 C.2   149  MET149      0.2261
     64  O         72.4410   34.5860   15.2430 O.2   149  MET149     -0.2867
     65  CB        70.2960   34.7670   12.7540 C.3   149  MET149      0.0387
     66  CG        69.2010   35.6990   12.3150 C.3   149  MET149      0.0595
     67  SD        69.0000   37.0660   13.5280 S.3   149  MET149     -0.1393
     68  CE        68.2440   36.1830   14.9330 C.3   149  MET149      0.0692
     69  N         70.3540   24.2800   23.1000 N.3   158  ARG158     -0.1231
     70  CA        69.3820   23.4170   22.4360 C.3   158  ARG158      0.1694
     71  C         68.1400   24.2020   22.0040 C.2   158  ARG158      0.2592
     72  O         67.2580   23.6940   21.3240 O.2   158  ARG158     -0.2718
     73  CB        68.9940   22.2900   23.3970 C.3   158  ARG158      0.0321
     74  CG        69.6300   20.9560   23.0060 C.3   158  ARG158      0.0489
     75  CD        69.1100   19.7840   23.8490 C.3   158  ARG158      0.2205
     76  NE        67.8820   20.1450   24.5620 N.pl3 158  ARG158     -0.0865
     77  CZ        67.0910   19.1310   24.9660 C.cat 158  ARG158      0.5346
     78  NH1       67.4280   17.8820   24.6960 N.pl3 158  ARG158      0.1354
     79  NH2       66.0180   19.3830   25.7220 N.pl3 158  ARG158      0.1354
     80  N         67.8580   25.4330   22.4760 N.am  159  SER159     -0.1952
     81  CA        66.5110   25.9750   22.3610 C.3   159  SER159      0.1924
     82  C         66.1720   26.6020   20.9790 C.2   159  SER159      0.2314
     83  O         65.0370   26.5200   20.5310 O.2   159  SER159     -0.2863
     84  CB        66.2120   26.9180   23.5520 C.3   159  SER159      0.2116
     85  OG        66.4350   28.2700   23.1730 O.3   159  SER159     -0.2180
     86  N         68.9310   25.6140   16.0600 N.3   162  PHE162     -0.1227
     87  CA        68.6160   24.9320   14.8120 C.3   162  PHE162      0.1736
     88  C         67.5440   25.6820   14.0170 C.2   162  PHE162      0.2595
     89  O         66.8650   25.1340   13.1580 O.2   162  PHE162     -0.2718
     90  CB        68.1140   23.5310   15.1590 C.3   162  PHE162      0.0547
     91  CG        66.9480   23.6330   16.0980 C.ar  162  PHE162     -0.0202
     92  CD1       67.1490   23.4800   17.4650 C.ar  162  PHE162     -0.0042
     93  CD2       65.6770   23.8740   15.6010 C.ar  162  PHE162     -0.0042
     94  CE1       66.0700   23.5660   18.3350 C.ar  162  PHE162     -0.0003
     95  CE2       64.6000   23.9600   16.4800 C.ar  162  PHE162     -0.0003
     96  CZ        64.7920   23.8070   17.8480 C.ar  162  PHE162     -0.0000
     97  N         67.3800   26.9750   14.3560 N.am  163  LEU163     -0.1966
     98  CA        66.3090   27.7490   13.7380 C.3   163  LEU163      0.1728
     99  C         66.8400   28.8220   12.7820 C.2   163  LEU163      0.2616
    100  O         66.2350   29.1490   11.7690 O.2   163  LEU163     -0.2715
    101  CB        65.4960   28.4030   14.8560 C.3   163  LEU163      0.0311
    102  CG        64.1640   28.9700   14.3610 C.3   163  LEU163      0.0022
    103  CD1       63.1530   27.8730   14.0230 C.3   163  LEU163      0.0001
    104  CD2       63.4870   29.8730   15.3920 C.3   163  LEU163      0.0001
    105  N         67.9950   29.4050   13.1540 N.am  164  PHE164     -0.1974
    106  CA        68.5470   30.4860   12.3440 C.3   164  PHE164      0.1639
    107  C         69.6450   29.9900   11.3980 C.2   164  PHE164      0.2290
    108  O         70.3910   29.0680   11.7010 O.2   164  PHE164     -0.2864
    109  CB        69.1050   31.5490   13.2900 C.3   164  PHE164      0.0560
    110  CG        68.0210   32.0110   14.2200 C.ar  164  PHE164     -0.0200
    111  CD1       67.8030   31.3290   15.4110 C.ar  164  PHE164     -0.0042
    112  CD2       67.1750   33.0400   13.8380 C.ar  164  PHE164     -0.0042
    113  CE1       66.7250   31.6730   16.2150 C.ar  164  PHE164     -0.0003
    114  CE2       66.0960   33.3790   14.6500 C.ar  164  PHE164     -0.0003
    115  CZ        65.8660   32.6980   15.8390 C.ar  164  PHE164     -0.0000
    116  N         60.7180   37.2120   23.6390 N.3   196  LEU196     -0.1245
    117  CA        61.7500   37.2020   22.6180 C.3   196  LEU196      0.1561
    118  C         62.6030   38.4280   22.8970 C.2   196  LEU196      0.2260
    119  O         62.1520   39.5380   22.6670 O.2   196  LEU196     -0.2867
    120  CB        61.0640   37.2900   21.2440 C.3   196  LEU196      0.0270
    121  CG        61.6440   36.5630   20.0470 C.3   196  LEU196      0.0019
    122  CD1       60.6260   36.5870   18.8730 C.3   196  LEU196      0.0001
    123  CD2       62.9850   37.2550   19.6590 C.3   196  LEU196      0.0001
    124  N         70.1500   35.4670   21.7250 N.3   216  LEU216     -0.1245
    125  CA        68.6960   35.5620   21.6050 C.3   216  LEU216      0.1561
    126  C         67.9890   34.5130   22.4680 C.2   216  LEU216      0.2260
    127  O         68.3740   33.3550   22.5360 O.2   216  LEU216     -0.2867
    128  CB        68.3220   35.3620   20.1350 C.3   216  LEU216      0.0270
    129  CG        66.8090   35.3560   19.9040 C.3   216  LEU216      0.0019
    130  CD1       66.1990   36.7570   19.9760 C.3   216  LEU216      0.0001
    131  CD2       66.4210   34.7930   18.5370 C.3   216  LEU216      0.0001
    132  N         63.9690   33.2190   23.4490 N.3   218  MET218     -0.1245
    133  CA        62.5440   33.3760   23.1860 C.3   218  MET218      0.1570
    134  C         61.7190   32.2260   23.7660 C.2   218  MET218      0.2261
    135  O         62.2330   31.2270   24.2490 O.2   218  MET218     -0.2867
    136  CB        62.3440   33.4380   21.6720 C.3   218  MET218      0.0387
    137  CG        62.1940   32.0490   21.0450 C.3   218  MET218      0.0595
    138  SD        61.2770   32.0940   19.5000 S.3   218  MET218     -0.1393
    139  CE        60.9310   30.3340   19.3730 C.3   218  MET218      0.0692
    140  N         59.4030   29.7840   22.4160 N.3   220  GLY220     -0.1210
    141  CA        58.7340   29.0800   21.3350 C.3   220  GLY220      0.1956
    142  C         57.2280   29.3310   21.3750 C.2   220  GLY220      0.2611
    143  O         56.6390   29.8880   20.4570 O.2   220  GLY220     -0.2717
    144  N         56.6310   28.6460   22.3400 N.am  221  LYS221     -0.1979
    145  CA        55.1830   28.4850   22.3630 C.3   221  LYS221      0.1596
    146  C         54.5000   29.8280   22.4180 C.2   221  LYS221      0.2287
    147  O         53.5110   30.0290   21.7180 O.2   221  LYS221     -0.2864
    148  CB        54.7300   27.6150   23.5500 C.3   221  LYS221      0.0298
    149  CG        55.4210   26.2580   23.6450 C.3   221  LYS221      0.0038
    150  CD        54.9460   25.3110   22.5510 C.3   221  LYS221      0.0206
    151  CE        55.3500   23.8530   22.8420 C.3   221  LYS221      0.1093
    152  NZ        54.2660   22.9070   22.3940 N.3   221  LYS221     -0.1314
    153  N         55.4980   32.7930   21.2680 N.3   223  VAL223     -0.1231
    154  CA        55.6520   33.4630   19.9600 C.3   223  VAL223      0.1692
    155  C         54.7920   32.7810   18.9500 C.2   223  VAL223      0.2592
    156  O         54.1070   33.4320   18.1650 O.2   223  VAL223     -0.2718
    157  CB        57.1130   33.4160   19.4790 C.3   223  VAL223      0.0266
    158  CG1       57.2660   34.0390   18.0180 C.3   223  VAL223      0.0020
    159  CG2       57.9250   34.2110   20.4510 C.3   223  VAL223      0.0020
    160  N         54.8090   31.4530   18.9550 N.am  224  PHE224     -0.1976
    161  CA        53.9860   30.7440   17.9880 C.3   224  PHE224      0.1639
    162  C         52.4930   31.0950   18.1790 C.2   224  PHE224      0.2290
    163  O         51.7940   31.3800   17.2120 O.2   224  PHE224     -0.2864
    164  CB        54.2220   29.2230   18.1090 C.3   224  PHE224      0.0560
    165  CG        53.5660   28.3750   17.0070 C.ar  224  PHE224     -0.0200
    166  CD1       54.2800   27.3400   16.3750 C.ar  224  PHE224     -0.0042
    167  CD2       52.2260   28.5360   16.6730 C.ar  224  PHE224     -0.0042
    168  CE1       53.7000   26.4630   15.4720 C.ar  224  PHE224     -0.0003
    169  CE2       51.6490   27.6660   15.7760 C.ar  224  PHE224     -0.0003
    170  CZ        52.3920   26.6190   15.1670 C.ar  224  PHE224     -0.0000
    171  N         57.3560   35.4820    6.4430 N.3   255  HIS255     -0.1241
    172  CA        58.6420   35.3360    7.1150 C.3   255  HIS255      0.1621
    173  C         58.7990   33.8170    7.4330 C.2   255  HIS255      0.2264
    174  O         57.8570   33.1130    7.8320 O.2   255  HIS255     -0.2867
    175  CB        58.6770   36.2080    8.4030 C.3   255  HIS255      0.0745
    176  CG        59.7470   35.7940    9.3770 C.ar  255  HIS255      0.0817
    177  ND1       59.4650   35.3510   10.6570 N.ar  255  HIS255     -0.2268
    178  CD2       61.0910   35.7040    9.2410 C.ar  255  HIS255      0.1154
    179  CE1       60.5840   35.0100   11.2700 C.ar  255  HIS255      0.1986
    180  NE2       61.5880   35.2120   10.4310 N.ar  255  HIS255     -0.2212
    181  N         59.6850   31.8130    9.8630 N.3   257  ALA257     -0.1231
    182  CA        59.9680   31.5040   11.2720 C.3   257  ALA257      0.1694
    183  C         60.2110   30.0250   11.3530 C.2   257  ALA257      0.2592
    184  O         61.1280   29.5870   12.0430 O.2   257  ALA257     -0.2718
    185  CB        58.7990   31.9130   12.1770 C.3   257  ALA257      0.0304
    186  N         59.3660   29.2800   10.6370 N.am  258  ASN258     -0.1974
    187  CA        59.3970   27.8300   10.4770 C.3   258  ASN258      0.1688
    188  C         58.1200   27.3700    9.7490 C.2   258  ASN258      0.2292
    189  O         57.0830   28.0590    9.7160 O.2   258  ASN258     -0.2864
    190  CB        59.6360   27.0810   11.8040 C.3   258  ASN258      0.1181
    191  CG        58.3770   26.8520   12.6190 C.2   258  ASN258      0.2629
    192  OD1       58.1930   27.5000   13.6140 O.2   258  ASN258     -0.2716
    193  ND2       57.5560   25.9000   12.2370 N.am  258  ASN258     -0.0877
    194  N         54.5080   26.9370   11.6140 N.3   261  ILE261     -0.1245
    195  CA        53.6860   28.1640   11.7660 C.3   261  ILE261      0.1561
    196  C         53.0900   28.5450   10.4260 C.2   261  ILE261      0.2260
    197  O         51.9170   28.8790   10.3040 O.2   261  ILE261     -0.2867
    198  CB        54.5410   29.3600   12.2450 C.3   261  ILE261      0.0252
    199  CG1       54.7660   29.2610   13.7350 C.3   261  ILE261      0.0019
    200  CG2       53.8330   30.6870   11.9450 C.3   261  ILE261      0.0019
    201  CD1       55.4490   30.4870   14.2980 C.3   261  ILE261      0.0001
    202  N         65.6950   30.1350    9.4810 N.3   286  ASN286     -0.1240
    203  CA        65.1600   31.4690    9.7700 C.3   286  ASN286      0.1653
    204  C         66.3100   32.4780    9.6840 C.2   286  ASN286      0.2266
    205  O         67.3050   32.3680   10.4390 O.2   286  ASN286     -0.2867
    206  CB        64.6430   31.4560   11.1990 C.3   286  ASN286      0.1155
    207  CG        64.0030   32.7300   11.6360 C.2   286  ASN286      0.2627
    208  OD1       64.4260   33.8610   11.2910 O.2   286  ASN286     -0.2716
    209  ND2       62.9710   32.5650   12.4930 N.am  286  ASN286     -0.0877
    210  N         57.0990   38.9200   10.8840 N.3   316  PHE316     -0.1227
    211  CA        56.5610   38.9860   12.2370 C.3   316  PHE316      0.1736
    212  C         57.5210   38.3960   13.2740 C.2   316  PHE316      0.2596
    213  O         58.2590   37.4540   13.0240 O.2   316  PHE316     -0.2718
    214  CB        55.2280   38.2350   12.2520 C.3   316  PHE316      0.0547
    215  CG        55.3920   36.8750   11.6410 C.ar  316  PHE316     -0.0202
    216  CD1       55.6980   35.7940   12.4580 C.ar  316  PHE316     -0.0042
    217  CD2       55.0980   36.6770   10.3010 C.ar  316  PHE316     -0.0042
    218  CE1       55.6770   34.5080   11.9380 C.ar  316  PHE316     -0.0003
    219  CE2       55.0810   35.3820    9.7860 C.ar  316  PHE316     -0.0003
    220  CZ        55.3590   34.2950   10.6040 C.ar  316  PHE316     -0.0000
    221  N         57.5160   39.0200   14.4700 N.am  317  GLY317     -0.1957
    222  CA        58.4190   38.5680   15.5200 C.3   317  GLY317      0.1869
    223  C         58.5590   39.6090   16.6370 C.2   317  GLY317      0.2309
    224  O         57.5910   40.0660   17.2290 O.2   317  GLY317     -0.2863
@<TRIPOS>BOND
     1   171   172    1
     2   172   173    1
     3   172   175    1
     4   173   174    2
     5   175   176    1
     6   178   176   ar
     7   178   180   ar
     8   176   177   ar
     9   202   203    1
    10    58    57    2
    11   204   203    1
    12   204   205    2
    13   189   188    2
    14   188   187    1
    15   203   206    1
    16   219   217   ar
    17   219   220   ar
    18   181   182    1
    19    51    50    2
    20   217   215   ar
    21   197   196    2
    22   196   195    1
    23   180   179   ar
    24   187   186    1
    25   187   190    1
    26   220   218   ar
    27   186   183   am
    28   177   179   ar
    29    57    56    1
    30    50    49    1
    31   210   211    1
    32   206   207    1
    33   182   183    1
    34   182   185    1
    35   208   207    2
    36   183   184    2
    37   107   108    2
    38   107   106    1
    39   194   195    1
    40   207   209   am
    41   215   214    1
    42   215   216   ar
    43    56    59    1
    44    56    55    1
    45   195   198    1
    46   100    99    2
    47   190   191    1
    48    61    62    1
    49    53    52    1
    50   218   216   ar
    51   200   198    1
    52    59    60    1
    53   211   214    1
    54   211   212    1
    55   193   191   am
    56   198   199    1
    57    49    52    1
    58    49    48    1
    59    66    65    1
    60    66    67    1
    61   106   105    1
    62   106   109    1
    63    52    54    1
    64   191   192    2
    65    65    62    1
    66    99   105   am
    67    99    98    1
    68   213   212    2
    69    48    39   am
    70    62    63    1
    71    89    88    2
    72   212   221   am
    73   109   110    1
    74    67    68    1
    75   199   201    1
    76    98    97    1
    77    98   101    1
    78   112   110   ar
    79   112   114   ar
    80    63    64    2
    81    39    40    2
    82    39    38    1
    83    88    97   am
    84    88    87    1
    85   103   102    1
    86    37    38    1
    87   110   111   ar
    88   102   101    1
    89   102   104    1
    90   221   222    1
    91   114   115   ar
    92    87    90    1
    93    87    86    1
    94    38    41    1
    95    90    91    1
    96    23    24    1
    97   170   168   ar
    98   170   169   ar
    99    25    26    2
   100    25    24    1
   101   111   113   ar
   102   168   166   ar
   103   222   223    1
   104    93    91   ar
   105    93    95   ar
   106   169   167   ar
   107   115   113   ar
   108    24    27    1
   109    91    92   ar
   110    41    42    1
   111   166   165   ar
   112    95    96   ar
   113   223   224    2
   114   167   165   ar
   115   165   164    1
   116    42    43    1
   117   163   162    2
   118    27    28    1
   119    92    94   ar
   120    33    35   ar
   121    33    30   ar
   122    96    94   ar
   123    35    36   ar
   124   161   164    1
   125   161   162    1
   126   161   160    1
   127   158   157    1
   128    43    44    1
   129    22    21    1
   130   156   155    2
   131    28    30   ar
   132    28    29   ar
   133    20    19    2
   134    30    32   ar
   135    19    18    1
   136   131   129    1
   137     8     6    1
   138    44    45    2
   139   122   121    1
   140    36    34   ar
   141   155   160   am
   142   155   154    1
   143    21    18    1
   144     6     5    1
   145    29    31   ar
   146    32    34   ar
   147    32    31   ar
   148   139   138    1
   149   157   154    1
   150   157   159    1
   151   138   137    1
   152    18    17    1
   153     1     2    1
   154   123   121    1
   155     4     3    2
   156   129   130    1
   157   129   128    1
   158    45    46    1
   159    45    47    1
   160   154   153    1
   161   121   120    1
   162   128   125    1
   163    17    11   am
   164     5     7    1
   165     5     2    1
   166   143   142    2
   167    83    82    2
   168     2     3    1
   169     3     9   am
   170    82    81    1
   171   137   136    1
   172   120   117    1
   173    72    71    2
   174   141   142    1
   175   141   140    1
   176   142   144   am
   177    11    12    2
   178    11    10    1
   179   125   124    1
   180   125   126    1
   181   136   133    1
   182   147   146    2
   183     9    10    1
   184    71    70    1
   185    71    80   am
   186    10    13    1
   187   144   145    1
   188    81    80    1
   189    81    84    1
   190   145   146    1
   191   145   148    1
   192   152   151    1
   193    70    69    1
   194    70    73    1
   195   126   127    2
   196   150   151    1
   197   150   149    1
   198   117   118    1
   199   117   116    1
   200   119   118    2
   201    74    73    1
   202    74    75    1
   203    16    14   ar
   204    85    84    1
   205   133   132    1
   206   133   134    1
   207   148   149    1
   208    13    14    1
   209   134   135    2
   210    75    76    1
   211    14    15   ar
   212    76    77    2
   213    78    77    1
   214    77    79    1
