@<TRIPOS>MOLECULE
tmp/1mznE00.pdb
 140 133 0 0 0
SMALL
GASTEIGER

@<TRIPOS>ATOM
      1  N         14.6070    2.0370   85.2580 N.3    43  PHE43      -0.1241
      2  CA        13.7840    3.1090   85.8090 C.3    43  PHE43       0.1605
      3  C         13.7050    4.2880   84.8460 C.2    43  PHE43       0.2264
      4  O         12.6260    4.8510   84.6330 O.2    43  PHE43      -0.2867
      5  CB        14.3280    3.5910   87.1590 C.3    43  PHE43       0.0534
      6  CG        14.1550    2.6000   88.2700 C.ar   43  PHE43      -0.0203
      7  CD1       15.1550    1.6770   88.5600 C.ar   43  PHE43      -0.0042
      8  CD2       12.9830    2.5820   89.0220 C.ar   43  PHE43      -0.0042
      9  CE1       14.9890    0.7460   89.5860 C.ar   43  PHE43      -0.0003
     10  CE2       12.8070    1.6610   90.0460 C.ar   43  PHE43      -0.0003
     11  CZ        13.8120    0.7390   90.3300 C.ar   43  PHE43      -0.0000
     12  N         11.3440    3.8250   81.7460 N.3    46  VAL46      -0.1245
     13  CA         9.9370    4.1080   81.9480 C.3    46  VAL46       0.1561
     14  C          9.7120    5.6030   81.7240 C.2    46  VAL46       0.2260
     15  O          8.7780    5.9970   81.0330 O.2    46  VAL46      -0.2867
     16  CB         9.4800    3.7280   83.3700 C.3    46  VAL46       0.0252
     17  CG1        8.0210    4.1260   83.5580 C.3    46  VAL46       0.0019
     18  CG2        9.6540    2.2260   83.5930 C.3    46  VAL46       0.0019
     19  N          7.3330    7.3820   78.7430 N.3    50  LYS50      -0.1245
     20  CA         6.2990    8.3630   79.0700 C.3    50  LYS50       0.1561
     21  C          6.4360    9.6450   78.2480 C.2    50  LYS50       0.2260
     22  O          5.4500   10.3520   78.0290 O.2    50  LYS50      -0.2867
     23  CB         6.3580    8.7090   80.5600 C.3    50  LYS50       0.0271
     24  CG         5.6570    7.7140   81.4660 C.3    50  LYS50       0.0035
     25  CD         5.9080    8.0610   82.9290 C.3    50  LYS50       0.0206
     26  CE         4.8870    7.4210   83.8470 C.3    50  LYS50       0.1093
     27  NZ         3.5310    7.9650   83.5690 N.3    50  LYS50      -0.1314
     28  N          2.3970    7.3290   73.9650 N.3    55  PHE55      -0.1241
     29  CA         2.5970    6.0930   74.7170 C.3    55  PHE55       0.1605
     30  C          1.7160    6.0770   75.9660 C.2    55  PHE55       0.2264
     31  O          1.0700    5.0750   76.2620 O.2    55  PHE55      -0.2867
     32  CB         4.0620    5.9420   75.1450 C.3    55  PHE55       0.0534
     33  CG         4.3270    4.7090   75.9730 C.ar   55  PHE55      -0.0203
     34  CD1        4.4770    3.4610   75.3650 C.ar   55  PHE55      -0.0042
     35  CD2        4.4020    4.7890   77.3580 C.ar   55  PHE55      -0.0042
     36  CE1        4.7010    2.3130   76.1310 C.ar   55  PHE55      -0.0003
     37  CE2        4.6240    3.6470   78.1350 C.ar   55  PHE55      -0.0003
     38  CZ         4.7740    2.4050   77.5170 C.ar   55  PHE55      -0.0000
     39  N         -3.0380    1.1650   80.2450 N.3    60  LEU60      -0.1231
     40  CA        -1.9640    0.7920   81.1520 C.3    60  LEU60       0.1693
     41  C         -1.4110   -0.6040   80.9080 C.2    60  LEU60       0.2592
     42  O         -0.1980   -0.7940   80.8750 O.2    60  LEU60      -0.2718
     43  CB        -2.4340    0.8930   82.6050 C.3    60  LEU60       0.0284
     44  CG        -1.3920    0.4540   83.6390 C.3    60  LEU60       0.0019
     45  CD1       -0.1810    1.3840   83.5660 C.3    60  LEU60       0.0001
     46  CD2       -1.9970    0.4690   85.0320 C.3    60  LEU60       0.0001
     47  N         -2.2980   -1.5830   80.7490 N.am   61  ASP61      -0.1974
     48  CA        -1.8620   -2.9540   80.5150 C.3    61  ASP61       0.1709
     49  C         -1.0240   -3.0920   79.2370 C.2    61  ASP61       0.2293
     50  O         -0.1350   -3.9390   79.1690 O.2    61  ASP61      -0.2864
     51  CB        -3.0730   -3.8870   80.4640 C.3    61  ASP61       0.1436
     52  CG        -3.8510   -3.8940   81.7670 C.2    61  ASP61       0.3671
     53  OD1       -3.2100   -3.9490   82.8390 O.co2  61  ASP61      -0.2456
     54  OD2       -5.0980   -3.8470   81.7220 O.co2  61  ASP61      -0.2456
     55  N          0.8360   -0.5880   78.0440 N.3    63  GLN63      -0.1231
     56  CA         2.0960    0.0910   78.3340 C.3    63  GLN63       0.1698
     57  C          3.0250   -0.9290   78.9950 C.2    63  GLN63       0.2592
     58  O          4.2190   -0.9910   78.6890 O.2    63  GLN63      -0.2718
     59  CB         1.8700    1.2730   79.2770 C.3    63  GLN63       0.0381
     60  CG         1.1330    2.4450   78.6530 C.3    63  GLN63       0.0905
     61  CD         0.9930    3.6030   79.6270 C.2    63  GLN63       0.2608
     62  OE1        1.9410    3.9380   80.3330 O.2    63  GLN63      -0.2717
     63  NE2       -0.1880    4.2250   79.6630 N.am   63  GLN63      -0.0878
     64  N          2.4580   -1.7360   79.8910 N.am   64  VAL64      -0.1980
     65  CA         3.2030   -2.7750   80.6020 C.3    64  VAL64       0.1595
     66  C          3.7510   -3.8120   79.6200 C.2    64  VAL64       0.2287
     67  O          4.9300   -4.1830   79.6700 O.2    64  VAL64      -0.2864
     68  CB         2.2930   -3.4850   81.6420 C.3    64  VAL64       0.0276
     69  CG1        2.9520   -4.7570   82.1570 C.3    64  VAL64       0.0022
     70  CG2        2.0120   -2.5380   82.8050 C.3    64  VAL64       0.0022
     71  N          6.6840   -2.4190   77.3500 N.3    67  LEU67      -0.1231
     72  CA         7.9500   -2.2460   78.0540 C.3    67  LEU67       0.1693
     73  C          8.5790   -3.5850   78.4350 C.2    67  LEU67       0.2591
     74  O          9.7940   -3.7380   78.3690 O.2    67  LEU67      -0.2718
     75  CB         7.7640   -1.3500   79.2830 C.3    67  LEU67       0.0284
     76  CG         7.6180    0.1370   78.9230 C.3    67  LEU67       0.0019
     77  CD1        7.1520    0.9300   80.1280 C.3    67  LEU67       0.0001
     78  CD2        8.9520    0.6730   78.4130 C.3    67  LEU67       0.0001
     79  N          7.7630   -4.5580   78.8270 N.am   68  ARG68      -0.1980
     80  CA         8.3040   -5.8740   79.1590 C.3    68  ARG68       0.1597
     81  C          8.8070   -6.5770   77.8950 C.2    68  ARG68       0.2287
     82  O          9.7600   -7.3520   77.9460 O.2    68  ARG68      -0.2864
     83  CB         7.2430   -6.7420   79.8400 C.3    68  ARG68       0.0334
     84  CG         6.9650   -6.3450   81.2830 C.3    68  ARG68       0.0492
     85  CD         6.0530   -7.3450   81.9560 C.3    68  ARG68       0.2205
     86  NE         6.6370   -8.6840   82.0290 N.pl3  68  ARG68      -0.0865
     87  CZ         7.5800   -9.0610   82.8910 C.cat  68  ARG68       0.5346
     88  NH1        8.0720   -8.2030   83.7770 N.pl3  68  ARG68       0.1354
     89  NH2        8.0200  -10.3120   82.8810 N.pl3  68  ARG68       0.1354
     90  N         16.1340   -5.2450   92.2580 N.3   215  THR215     -0.1203
     91  CA        14.6810   -5.3800   92.1960 C.3   215  THR215      0.1994
     92  C         13.9790   -5.2630   90.8480 C.2   215  THR215      0.2617
     93  O         13.1870   -6.1310   90.4950 O.2   215  THR215     -0.2717
     94  CB        13.9770   -4.3920   93.1790 C.3   215  THR215      0.1784
     95  OG1       14.1360   -3.0410   92.7230 O.3   215  THR215     -0.2211
     96  CG2       14.5670   -4.5230   94.5750 C.3   215  THR215      0.0376
     97  N         14.2510   -4.1990   90.0990 N.am  216  PHE216     -0.1975
     98  CA        13.5760   -4.0120   88.8210 C.3   216  PHE216      0.1639
     99  C         14.0350   -5.0070   87.7550 C.2   216  PHE216      0.2290
    100  O         13.2090   -5.5590   87.0270 O.2   216  PHE216     -0.2864
    101  CB        13.7610   -2.5710   88.3360 C.3   216  PHE216      0.0560
    102  CG        12.6540   -2.0770   87.4470 C.ar  216  PHE216     -0.0200
    103  CD1       12.6390   -0.7570   87.0110 C.ar  216  PHE216     -0.0042
    104  CD2       11.6390   -2.9280   87.0220 C.ar  216  PHE216     -0.0042
    105  CE1       11.6350   -0.2950   86.1660 C.ar  216  PHE216     -0.0003
    106  CE2       10.6310   -2.4750   86.1750 C.ar  216  PHE216     -0.0003
    107  CZ        10.6260   -1.1610   85.7450 C.ar  216  PHE216     -0.0000
    108  N         12.4410   -8.3180   88.4790 N.3   219  GLU219     -0.1231
    109  CA        11.0310   -8.3500   88.1020 C.3   219  GLU219      0.1699
    110  C         10.8510   -8.5360   86.5940 C.2   219  GLU219      0.2592
    111  O          9.9380   -9.2400   86.1460 O.2   219  GLU219     -0.2718
    112  CB        10.3380   -7.0600   88.5420 C.3   219  GLU219      0.0402
    113  CG         8.8610   -6.9880   88.1650 C.3   219  GLU219      0.1161
    114  CD         8.2180   -5.6810   88.5960 C.2   219  GLU219      0.3649
    115  OE1        7.7720   -4.9050   87.7240 O.co2 219  GLU219     -0.2457
    116  OE2        8.1620   -5.4330   89.8160 O.co2 219  GLU219     -0.2457
    117  N         11.7040   -7.8860   85.8090 N.am  220  MET220     -0.1979
    118  CA        11.6190   -8.0190   84.3610 C.3   220  MET220      0.1605
    119  C         11.9890   -9.4370   83.9330 C.2   220  MET220      0.2287
    120  O         11.4470   -9.9500   82.9570 O.2   220  MET220     -0.2864
    121  CB        12.5380   -7.0050   83.6690 C.3   220  MET220      0.0413
    122  CG        12.0530   -5.5670   83.7990 C.3   220  MET220      0.0598
    123  SD        10.4200   -5.3250   83.0300 S.3   220  MET220     -0.1393
    124  CE        10.7680   -3.9770   81.9310 C.3   220  MET220      0.0692
    125  N         11.5510  -12.2170   85.8130 N.3   222  GLU222     -0.1245
    126  CA        10.6130  -13.2110   86.3150 C.3   222  GLU222      0.1567
    127  C          9.3950  -13.2350   85.3970 C.2   222  GLU222      0.2260
    128  O          8.7970  -12.1960   85.1170 O.2   222  GLU222     -0.2867
    129  CB        10.2000  -12.8870   87.7590 C.3   222  GLU222      0.0388
    130  CG         9.2840  -11.6820   87.9160 C.3   222  GLU222      0.1160
    131  CD         9.0390  -11.3160   89.3730 C.2   222  GLU222      0.3649
    132  OE1        8.1460  -10.4800   89.6390 O.co2 222  GLU222     -0.2457
    133  OE2        9.7450  -11.8560   90.2530 O.co2 222  GLU222     -0.2457
    134  N          5.9000  -13.2890   83.5550 N.3   224  PRO224     -0.2116
    135  CA         4.7120  -12.5020   83.9000 C.3   224  PRO224      0.1372
    136  C          3.8450  -13.1660   84.9670 C.2   224  PRO224      0.2244
    137  O          4.0460  -14.3730   85.2210 O.2   224  PRO224     -0.2868
    138  CB         3.9890  -12.3760   82.5620 C.3   224  PRO224      0.0268
    139  CG         5.1220  -12.3200   81.5870 C.3   224  PRO224      0.0207
    140  CD         6.0410  -13.4110   82.0930 C.3   224  PRO224      0.0892
@<TRIPOS>BOND
     1    28    29    1
     2    29    32    1
     3    29    30    1
     4    32    33    1
     5    34    33   ar
     6    34    36   ar
     7    30    31    2
     8    33    35   ar
     9    36    38   ar
    10    71    72    1
    11    35    37   ar
    12    38    37   ar
    13    81    82    2
    14    81    80    1
    15    22    21    2
    16    55    56    1
    17    72    73    1
    18    72    75    1
    19    21    20    1
    20    56    57    1
    21    56    59    1
    22    74    73    2
    23    78    76    1
    24    73    79   am
    25    60    59    1
    26    60    61    1
    27    58    57    2
    28    19    20    1
    29    79    80    1
    30    76    75    1
    31    76    77    1
    32    57    64   am
    33    20    23    1
    34    80    83    1
    35    50    49    2
    36    49    48    1
    37    66    67    2
    38    66    65    1
    39    61    63   am
    40    61    62    2
    41    83    84    1
    42    64    65    1
    43    39    40    1
    44    51    48    1
    45    51    52    1
    46    48    47    1
    47    23    24    1
    48    65    68    1
    49    47    41   am
    50    42    41    2
    51    41    40    1
    52    15    14    2
    53    40    43    1
    54    84    85    1
    55    24    25    1
    56   139   140    1
    57   139   138    1
    58    68    69    1
    59    68    70    1
    60    54    52   ar
    61    14    13    1
    62    12    13    1
    63    52    53   ar
    64   124   123    1
    65    13    16    1
    66    85    86    1
    67    86    87    2
    68   140   134    1
    69   138   135    1
    70    43    44    1
    71    89    87    1
    72    87    88    1
    73    25    26    1
    74   120   119    2
    75   123   122    1
    76    16    17    1
    77    16    18    1
    78   134   135    1
    79    45    44    1
    80    27    26    1
    81    44    46    1
    82   121   122    1
    83   121   118    1
    84   135   136    1
    85   119   118    1
    86   118   117    1
    87     4     3    2
    88     3     2    1
    89   136   137    2
    90   128   127    2
    91     1     2    1
    92   127   126    1
    93   107   105   ar
    94   107   106   ar
    95   117   110   am
    96     2     5    1
    97   125   126    1
    98   111   110    2
    99   105   103   ar
   100   106   104   ar
   101   126   129    1
   102   110   109    1
   103   103   102   ar
   104   104   102   ar
   105   100    99    2
   106     5     6    1
   107   102   101    1
   108   115   114   ar
   109    99    98    1
   110   129   130    1
   111   130   131    1
   112   109   108    1
   113   109   112    1
   114   113   112    1
   115   113   114    1
   116     6     7   ar
   117     6     8   ar
   118   101    98    1
   119     7     9   ar
   120   114   116   ar
   121    98    97    1
   122     8    10   ar
   123   131   132   ar
   124   131   133   ar
   125     9    11   ar
   126    10    11   ar
   127    97    92   am
   128    93    92    2
   129    92    91    1
   130    91    90    1
   131    91    94    1
   132    95    94    1
   133    94    96    1
