@<TRIPOS>MOLECULE
tmp/1mznE01.pdb
 195 185 0 0 0
SMALL
GASTEIGER

@<TRIPOS>ATOM
      1  N         30.3180   -8.3010   85.0880 N.3    31  VAL31      -0.1245
      2  CA        28.9080   -8.6450   84.9360 C.3    31  VAL31       0.1561
      3  C         28.0300   -8.0170   86.0140 C.2    31  VAL31       0.2260
      4  O         26.9220   -7.5700   85.7290 O.2    31  VAL31      -0.2867
      5  CB        28.7060  -10.1800   84.9270 C.3    31  VAL31       0.0252
      6  CG1       27.2240  -10.5110   84.9160 C.3    31  VAL31       0.0019
      7  CG2       29.3860  -10.7820   83.7010 C.3    31  VAL31       0.0019
      8  N         27.6170   -4.3670   85.1420 N.3    34  ILE34      -0.1231
      9  CA        26.7340   -4.2400   83.9890 C.3    34  ILE34       0.1692
     10  C         25.2730   -4.4400   84.4070 C.2    34  ILE34       0.2592
     11  O         24.3900   -3.6850   83.9890 O.2    34  ILE34      -0.2718
     12  CB        27.1170   -5.2520   82.8830 C.3    34  ILE34       0.0266
     13  CG1       28.4770   -4.8690   82.2890 C.3    34  ILE34       0.0019
     14  CG2       26.0470   -5.2670   81.7930 C.3    34  ILE34       0.0020
     15  CD1       29.0770   -5.9040   81.3630 C.3    34  ILE34       0.0001
     16  N         25.0110   -5.4550   85.2280 N.am   35  CYS35      -0.1970
     17  CA        23.6470   -5.7000   85.6920 C.3    35  CYS35       0.1712
     18  C         23.1360   -4.5530   86.5700 C.2    35  CYS35       0.2296
     19  O         21.9460   -4.2450   86.5640 O.2    35  CYS35      -0.2864
     20  CB        23.5690   -7.0270   86.4500 C.3    35  CYS35       0.0983
     21  SG        23.7090   -8.4650   85.3620 S.3    35  CYS35      -0.0798
     22  N         23.9490   -1.4330   86.1820 N.3    37  ALA37      -0.1231
     23  CA        23.6200   -0.3700   85.2410 C.3    37  ALA37       0.1694
     24  C         22.2690   -0.6690   84.5840 C.2    37  ALA37       0.2591
     25  O         21.4450    0.2250   84.4080 O.2    37  ALA37      -0.2718
     26  CB        24.7120   -0.2530   84.1790 C.3    37  ALA37       0.0304
     27  N         22.0370   -1.9300   84.2240 N.am   38  ALA38      -0.1980
     28  CA        20.7760   -2.3060   83.5920 C.3    38  ALA38       0.1597
     29  C         19.5940   -1.9720   84.4980 C.2    38  ALA38       0.2287
     30  O         18.5990   -1.4130   84.0400 O.2    38  ALA38      -0.2864
     31  CB        20.7710   -3.8030   83.2460 C.3    38  ALA38       0.0319
     32  N         19.0140    1.7730   84.6200 N.3    41  GLN41      -0.1245
     33  CA        18.4050    2.2330   83.3880 C.3    41  GLN41       0.1566
     34  C         16.9620    1.7860   83.1540 C.2    41  GLN41       0.2260
     35  O         16.2490    2.4120   82.3730 O.2    41  GLN41      -0.2867
     36  CB        19.2810    1.8510   82.1950 C.3    41  GLN41       0.0367
     37  CG        20.6130    2.5950   82.1500 C.3    41  GLN41       0.0905
     38  CD        20.4570    4.0920   82.3820 C.2    41  GLN41       0.2608
     39  OE1       20.4760    4.5620   83.5180 O.2    41  GLN41      -0.2717
     40  NE2       20.2850    4.8380   81.3080 N.am   41  GLN41      -0.0878
     41  N         12.2020   -3.8810   76.6670 N.3    71  TRP71      -0.1227
     42  CA        13.2690   -3.2890   77.4800 C.3    71  TRP71       0.1737
     43  C         14.6800   -3.7190   77.1060 C.2    71  TRP71       0.2595
     44  O         15.5930   -2.8980   77.0410 O.2    71  TRP71      -0.2718
     45  CB        13.0390   -3.5380   78.9810 C.3    71  TRP71       0.0564
     46  CG        13.0800   -4.9720   79.4120 C.ar   71  TRP71       0.0003
     47  CD1       12.0470   -5.8650   79.3960 C.ar   71  TRP71       0.0946
     48  CD2       14.2050   -5.6670   79.9640 C.ar   71  TRP71       0.0152
     49  NE1       12.4580   -7.0720   79.9100 N.ar   71  TRP71      -0.2442
     50  CE2       13.7790   -6.9780   80.2650 C.ar   71  TRP71       0.0810
     51  CE3       15.5330   -5.3050   80.2360 C.ar   71  TRP71       0.0012
     52  CZ2       14.6330   -7.9360   80.8250 C.ar   71  TRP71       0.0191
     53  CZ3       16.3850   -6.2590   80.7960 C.ar   71  TRP71       0.0001
     54  CH2       15.9260   -7.5590   81.0840 C.ar   71  TRP71       0.0015
     55  N         14.8630   -5.0070   76.8540 N.am   72  ASN72      -0.1974
     56  CA        16.1720   -5.5320   76.5040 C.3    72  ASN72       0.1688
     57  C         16.7440   -4.8290   75.2600 C.2    72  ASN72       0.2292
     58  O         17.8390   -4.2570   75.2990 O.2    72  ASN72      -0.2864
     59  CB        16.0410   -7.0430   76.2830 C.3    72  ASN72       0.1181
     60  CG        17.3610   -7.7500   76.2860 C.2    72  ASN72       0.2629
     61  OD1       17.6710   -8.4970   75.3600 O.2    72  ASN72      -0.2716
     62  ND2       18.1480   -7.5430   77.3360 N.am   72  ASN72      -0.0877
     63  N         17.3350   -0.9570   75.8140 N.3    75  LEU75      -0.1231
     64  CA        18.5340   -0.6030   76.5740 C.3    75  LEU75       0.1693
     65  C         19.8170   -0.8360   75.7840 C.2    75  LEU75       0.2591
     66  O         20.7670   -0.0580   75.8950 O.2    75  LEU75      -0.2718
     67  CB        18.5820   -1.3820   77.8890 C.3    75  LEU75       0.0284
     68  CG        17.4620   -1.0780   78.8910 C.3    75  LEU75       0.0019
     69  CD1       17.7380   -1.8390   80.1920 C.3    75  LEU75       0.0001
     70  CD2       17.3780    0.4280   79.1470 C.3    75  LEU75       0.0001
     71  N         19.8570   -1.9100   75.0000 N.am   76  ILE76      -0.1980
     72  CA        21.0390   -2.1980   74.1860 C.3    76  ILE76       0.1595
     73  C         21.2220   -1.0900   73.1480 C.2    76  ILE76       0.2287
     74  O         22.3310   -0.6220   72.9220 O.2    76  ILE76      -0.2864
     75  CB        20.9100   -3.5650   73.4610 C.3    76  ILE76       0.0276
     76  CG1       20.9410   -4.6950   74.4950 C.3    76  ILE76       0.0022
     77  CG2       22.0440   -3.7350   72.4400 C.3    76  ILE76       0.0022
     78  CD1       20.6090   -6.0740   73.9380 C.3    76  ILE76       0.0001
     79  N         20.3520    1.9650   73.3680 N.3    78  SER78      -0.1202
     80  CA        20.8230    3.1360   74.0900 C.3    78  SER78       0.2020
     81  C         22.3130    3.1060   74.4300 C.2    78  SER78       0.2618
     82  O         23.0370    4.0360   74.0830 O.2    78  SER78      -0.2717
     83  CB        20.0000    3.3180   75.3710 C.3    78  SER78       0.2103
     84  OG        20.4410    4.4360   76.1140 O.3    78  SER78      -0.2182
     85  N         22.7960    2.0580   75.0920 N.am   79  PHE79      -0.1975
     86  CA        24.2180    2.0790   75.4270 C.3    79  PHE79       0.1639
     87  C         25.1240    1.8860   74.2130 C.2    79  PHE79       0.2290
     88  O         26.2730    2.3330   74.2170 O.2    79  PHE79      -0.2864
     89  CB        24.5450    1.0960   76.5830 C.3    79  PHE79       0.0560
     90  CG        24.5800   -0.3650   76.2000 C.ar   79  PHE79      -0.0200
     91  CD1       25.5840   -0.8680   75.3790 C.ar   79  PHE79      -0.0042
     92  CD2       23.6320   -1.2490   76.7160 C.ar   79  PHE79      -0.0042
     93  CE1       25.6500   -2.2320   75.0720 C.ar   79  PHE79      -0.0003
     94  CE2       23.6870   -2.6130   76.4180 C.ar   79  PHE79      -0.0003
     95  CZ        24.7000   -3.1030   75.5910 C.ar   79  PHE79      -0.0000
     96  N         25.4930    5.3260   72.7590 N.3    82  ARG82      -0.1245
     97  CA        26.2570    6.0950   73.7390 C.3    82  ARG82       0.1563
     98  C         27.7590    5.7730   73.6120 C.2    82  ARG82       0.2260
     99  O         28.6160    6.6470   73.7740 O.2    82  ARG82      -0.2867
    100  CB        25.7680    5.7230   75.1440 C.3    82  ARG82       0.0307
    101  CG        26.4230    6.4590   76.3130 C.3    82  ARG82       0.0489
    102  CD        26.1410    5.7200   77.6200 C.3    82  ARG82       0.2205
    103  NE        24.7070    5.5210   77.8500 N.pl3  82  ARG82      -0.0865
    104  CZ        24.1900    4.4970   78.5230 C.cat  82  ARG82       0.5346
    105  NH1       24.9840    3.5690   79.0380 N.pl3  82  ARG82       0.1354
    106  NH2       22.8770    4.3950   78.6760 N.pl3  82  ARG82       0.1354
    107  N         32.2230   -0.3710   75.9870 N.3    90  ILE90      -0.1245
    108  CA        30.9300    0.2820   76.1460 C.3    90  ILE90       0.1561
    109  C         30.9200    1.1360   77.4040 C.2    90  ILE90       0.2260
    110  O         31.5290    0.7860   78.4140 O.2    90  ILE90      -0.2867
    111  CB        29.7590   -0.7360   76.2560 C.3    90  ILE90       0.0252
    112  CG1       29.8980   -1.5530   77.5410 C.3    90  ILE90       0.0019
    113  CG2       29.7330   -1.6590   75.0310 C.3    90  ILE90       0.0019
    114  CD1       28.6820   -2.4060   77.8650 C.3    90  ILE90       0.0001
    115  N         28.9040    2.4730   80.4610 N.3    92  LEU92      -0.1231
    116  CA        27.7170    2.1300   81.2400 C.3    92  LEU92       0.1693
    117  C         27.0680    3.3960   81.7810 C.2    92  LEU92       0.2591
    118  O         27.7310    4.4180   81.9570 O.2    92  LEU92      -0.2718
    119  CB        28.0770    1.2150   82.4140 C.3    92  LEU92       0.0284
    120  CG        28.7760   -0.1010   82.0580 C.3    92  LEU92       0.0019
    121  CD1       28.9720   -0.9260   83.3330 C.3    92  LEU92       0.0001
    122  CD2       27.9330   -0.8750   81.0350 C.3    92  LEU92       0.0001
    123  N         25.7710    3.3160   82.0650 N.am   93  ALA93      -0.1980
    124  CA        25.0290    4.4560   82.5890 C.3    93  ALA93       0.1597
    125  C         25.5300    4.8750   83.9700 C.2    93  ALA93       0.2287
    126  O         25.2290    5.9740   84.4450 O.2    93  ALA93      -0.2864
    127  CB        23.5580    4.1200   82.6520 C.3    93  ALA93       0.0319
    128  N         31.7930  -13.2750   78.5540 N.3   108  VAL108     -0.1245
    129  CA        30.6820  -12.7980   77.7280 C.3   108  VAL108      0.1561
    130  C         31.2300  -12.0680   76.4970 C.2   108  VAL108      0.2260
    131  O         30.5680  -11.2090   75.9160 O.2   108  VAL108     -0.2867
    132  CB        29.7330  -11.8460   78.5260 C.3   108  VAL108      0.0252
    133  CG1       29.1140  -12.5910   79.7120 C.3   108  VAL108      0.0019
    134  CG2       30.4950  -10.6140   79.0200 C.3   108  VAL108      0.0019
    135  N         29.0120  -12.1750   72.8500 N.3   111  ILE111     -0.1231
    136  CA        27.8640  -11.2730   72.6990 C.3   111  ILE111      0.1692
    137  C         28.3200   -9.8060   72.7680 C.2   111  ILE111      0.2592
    138  O         27.7430   -8.9330   72.1100 O.2   111  ILE111     -0.2718
    139  CB        26.7550  -11.5730   73.7650 C.3   111  ILE111      0.0266
    140  CG1       25.5060  -10.7270   73.4840 C.3   111  ILE111      0.0019
    141  CG2       27.2640  -11.3000   75.1830 C.3   111  ILE111      0.0020
    142  CD1       24.9060  -10.9550   72.1130 C.3   111  ILE111      0.0001
    143  N         29.3720   -9.5440   73.5420 N.am  112  PHE112     -0.1976
    144  CA        29.9250   -8.1860   73.6770 C.3   112  PHE112      0.1639
    145  C         30.4590   -7.7750   72.2940 C.2   112  PHE112      0.2290
    146  O         30.2420   -6.6520   71.8410 O.2   112  PHE112     -0.2864
    147  CB        31.0720   -8.1950   74.7060 C.3   112  PHE112      0.0560
    148  CG        31.4400   -6.8360   75.2430 C.ar  112  PHE112     -0.0200
    149  CD1       30.6880   -6.2450   76.2550 C.ar  112  PHE112     -0.0042
    150  CD2       32.5690   -6.1710   74.7730 C.ar  112  PHE112     -0.0042
    151  CE1       31.0620   -5.0120   76.7970 C.ar  112  PHE112     -0.0003
    152  CE2       32.9500   -4.9380   75.3070 C.ar  112  PHE112     -0.0003
    153  CZ        32.1940   -4.3620   76.3220 C.ar  112  PHE112     -0.0000
    154  N         27.6970   -6.8710   69.8420 N.3   115  VAL115     -0.1245
    155  CA        27.1990   -5.5110   70.0680 C.3   115  VAL115      0.1561
    156  C         28.1570   -4.4950   69.4410 C.2   115  VAL115      0.2260
    157  O         27.7330   -3.5730   68.7440 O.2   115  VAL115     -0.2867
    158  CB        27.0680   -5.1900   71.5860 C.3   115  VAL115      0.0252
    159  CG1       26.8400   -3.6920   71.7870 C.3   115  VAL115      0.0019
    160  CG2       25.9130   -5.9700   72.1890 C.3   115  VAL115      0.0019
    161  N         21.2930  -11.8410   74.6660 N.3   198  CYS198     -0.1235
    162  CA        21.6090  -11.1780   75.9310 C.3   198  CYS198      0.1677
    163  C         20.6990  -11.7200   77.0350 C.2   198  CYS198      0.2270
    164  O         21.1520  -11.9970   78.1470 O.2   198  CYS198     -0.2867
    165  CB        21.4220   -9.6640   75.7960 C.3   198  CYS198      0.0956
    166  SG        21.6450   -8.7380   77.3380 S.3   198  CYS198     -0.0801
    167  N         21.8370  -14.9290   78.4370 N.3   201  HIS201     -0.1226
    168  CA        22.9160  -14.7800   79.4110 C.3   201  HIS201      0.1752
    169  C         22.3640  -14.3720   80.7670 C.2   201  HIS201      0.2595
    170  O         22.7910  -14.8960   81.7960 O.2   201  HIS201     -0.2718
    171  CB        23.9340  -13.7270   78.9550 C.3   201  HIS201      0.0759
    172  CG        24.7980  -14.1710   77.8200 C.ar  201  HIS201      0.0818
    173  ND1       26.1380  -14.4570   77.9700 N.ar  201  HIS201     -0.2268
    174  CD2       24.5120  -14.3820   76.5140 C.ar  201  HIS201      0.1154
    175  CE1       26.6400  -14.8260   76.8050 C.ar  201  HIS201      0.1986
    176  NE2       25.6750  -14.7890   75.9050 N.ar  201  HIS201     -0.2212
    177  N         21.4260  -13.4270   80.7690 N.am  202  LEU202     -0.1980
    178  CA        20.8250  -12.9540   82.0120 C.3   202  LEU202      0.1596
    179  C         20.1300  -14.0660   82.7780 C.2   202  LEU202      0.2287
    180  O         20.2720  -14.1560   83.9960 O.2   202  LEU202     -0.2864
    181  CB        19.8340  -11.8210   81.7350 C.3   202  LEU202      0.0297
    182  CG        20.4740  -10.4760   81.3800 C.3   202  LEU202      0.0022
    183  CD1       19.3910   -9.5040   80.9350 C.3   202  LEU202      0.0001
    184  CD2       21.2310   -9.9280   82.6000 C.3   202  LEU202      0.0001
    185  N         22.7330  -16.1440   84.4470 N.3   205  PHE205     -0.1241
    186  CA        23.2830  -15.4950   85.6330 C.3   205  PHE205      0.1605
    187  C         22.3090  -15.5880   86.8030 C.2   205  PHE205      0.2264
    188  O         22.7080  -15.8560   87.9370 O.2   205  PHE205     -0.2867
    189  CB        23.6270  -14.0330   85.3260 C.3   205  PHE205      0.0534
    190  CG        24.8310  -13.8810   84.4420 C.ar  205  PHE205     -0.0203
    191  CD1       24.7890  -13.0750   83.3140 C.ar  205  PHE205     -0.0042
    192  CD2       26.0070  -14.5670   84.7340 C.ar  205  PHE205     -0.0042
    193  CE1       25.9000  -12.9560   82.4850 C.ar  205  PHE205     -0.0003
    194  CE2       27.1230  -14.4540   83.9130 C.ar  205  PHE205     -0.0003
    195  CZ        27.0690  -13.6470   82.7860 C.ar  205  PHE205     -0.0000
@<TRIPOS>BOND
     1   157   156    2
     2   156   155    1
     3   154   155    1
     4   155   158    1
     5   158   159    1
     6   158   160    1
     7   146   145    2
     8   138   137    2
     9   142   140    1
    10   145   144    1
    11    77    75    1
    12   136   137    1
    13   136   135    1
    14   136   139    1
    15    96    97    1
    16   137   143   am
    17    74    73    2
    18    73    72    1
    19    79    80    1
    20    75    72    1
    21    75    76    1
    22   140   139    1
    23   143   144    1
    24    98    97    1
    25    98    99    2
    26   144   147    1
    27    97   100    1
    28   139   141    1
    29    78    76    1
    30    82    81    2
    31    80    81    1
    32    80    83    1
    33    72    71    1
    34    87    88    2
    35    87    86    1
    36    81    85   am
    37   161   162    1
    38   147   148    1
    39   150   148   ar
    40   150   152   ar
    41    71    65   am
    42   113   111    1
    43    93    91   ar
    44    93    95   ar
    45    85    86    1
    46   100   101    1
    47   148   149   ar
    48    57    58    2
    49    57    56    1
    50   152   153   ar
    51    61    60    2
    52    83    84    1
    53    91    90   ar
    54    86    89    1
    55    95    94   ar
    56    65    66    2
    57    65    64    1
    58   165   162    1
    59   165   166    1
    60    63    64    1
    61   176   174   ar
    62   176   175   ar
    63   131   130    2
    64   162   163    1
    65   107   108    1
    66   108   111    1
    67   108   109    1
    68    90    89    1
    69    90    92   ar
    70   149   151   ar
    71   111   112    1
    72    59    60    1
    73    59    56    1
    74    60    62   am
    75   101   102    1
    76   153   151   ar
    77    94    92   ar
    78   130   129    1
    79    56    55    1
    80   174   172   ar
    81    64    67    1
    82    41    42    1
    83   175   173   ar
    84    55    43   am
    85   163   164    2
    86    44    43    2
    87    43    42    1
    88   109   110    2
    89    42    45    1
    90   112   114    1
    91   102   103    1
    92   129   132    1
    93   129   128    1
    94   172   173   ar
    95   172   171    1
    96   103   104    2
    97    67    68    1
    98   167   168    1
    99   104   106    1
   100   104   105    1
   101   132   134    1
   102   132   133    1
   103    68    70    1
   104    68    69    1
   105   171   168    1
   106    45    46    1
   107    47    46   ar
   108    47    49   ar
   109   168   169    1
   110    46    48   ar
   111    49    50   ar
   112    48    51   ar
   113    48    50   ar
   114    51    53   ar
   115    50    52   ar
   116   115   116    1
   117   169   177   am
   118   169   170    2
   119   177   178    1
   120    53    54   ar
   121    52    54   ar
   122   183   182    1
   123   122   120    1
   124   116   117    1
   125   116   119    1
   126    40    38   am
   127    15    13    1
   128   182   181    1
   129   182   184    1
   130   181   178    1
   131   117   118    2
   132   117   123   am
   133    14    12    1
   134   178   179    1
   135   120   119    1
   136   120   121    1
   137   123   124    1
   138    37    36    1
   139    37    38    1
   140    36    33    1
   141    13    12    1
   142    35    34    2
   143    38    39    2
   144   193   195   ar
   145   193   191   ar
   146   124   127    1
   147   124   125    1
   148   179   180    2
   149   195   194   ar
   150    12     9    1
   151    34    33    1
   152    31    28    1
   153   191   190   ar
   154    33    32    1
   155    28    27    1
   156    28    29    1
   157     7     5    1
   158   194   192   ar
   159   125   126    2
   160     9    10    1
   161     9     8    1
   162    11    10    2
   163    30    29    2
   164    26    23    1
   165    27    24   am
   166    10    16   am
   167    25    24    2
   168   190   192   ar
   169   190   189    1
   170   185   186    1
   171    24    23    1
   172     6     5    1
   173     5     2    1
   174     2     1    1
   175     2     3    1
   176    16    17    1
   177    23    22    1
   178   189   186    1
   179    21    20    1
   180   186   187    1
   181    17    20    1
   182    17    18    1
   183     4     3    2
   184    19    18    2
   185   187   188    2
