@<TRIPOS>MOLECULE
tmp/1mzuB00.pdb
 112 109 0 0 0
SMALL
GASTEIGER

@<TRIPOS>ATOM
      1  N         -0.2880   53.7290   29.6150 N.3    21  ILE21      -0.1245
      2  CA         0.3930   53.4110   30.8810 C.3    21  ILE21       0.1561
      3  C          1.9080   53.3750   30.6070 C.2    21  ILE21       0.2260
      4  O          2.3540   52.6170   29.7440 O.2    21  ILE21      -0.2867
      5  CB        -0.0400   51.9990   31.4190 C.3    21  ILE21       0.0252
      6  CG1       -1.5600   51.8910   31.5620 C.3    21  ILE21       0.0019
      7  CG2        0.6350   51.6820   32.7640 C.3    21  ILE21       0.0019
      8  CD1       -2.1220   50.5100   31.2670 C.3    21  ILE21       0.0001
      9  N         -0.0670   57.4240   33.9610 N.3    32  TYR32      -0.1241
     10  CA        -1.3530   56.7240   33.8110 C.3    32  TYR32       0.1605
     11  C         -2.4220   57.7680   33.4690 C.2    32  TYR32       0.2264
     12  O         -2.7150   58.6290   34.3040 O.2    32  TYR32      -0.2867
     13  CB        -1.6730   56.0510   35.1560 C.3    32  TYR32       0.0534
     14  CG        -2.7620   55.0070   35.1400 C.ar   32  TYR32      -0.0201
     15  CD1       -4.1110   55.3420   35.4490 C.ar   32  TYR32      -0.0009
     16  CD2       -2.4500   53.6590   34.8960 C.ar   32  TYR32      -0.0009
     17  CE1       -5.1100   54.3450   35.5140 C.ar   32  TYR32       0.0417
     18  CE2       -3.4330   52.6610   34.9670 C.ar   32  TYR32       0.0417
     19  CZ        -4.7580   53.0130   35.2740 C.ar   32  TYR32       0.1957
     20  OH        -5.7210   52.0430   35.3290 O.3    32  TYR32      -0.2866
     21  N         -7.5820   55.6710   30.5440 N.3    36  GLU36      -0.1245
     22  CA        -7.3670   54.3520   31.1310 C.3    36  GLU36       0.1567
     23  C         -8.1520   54.2080   32.4300 C.2    36  GLU36       0.2260
     24  O         -8.6920   53.1410   32.7100 O.2    36  GLU36      -0.2867
     25  CB        -5.8580   54.0830   31.3330 C.3    36  GLU36       0.0388
     26  CG        -5.4750   52.6680   31.7920 C.3    36  GLU36       0.1160
     27  CD        -5.9650   51.5230   30.9080 C.2    36  GLU36       0.3649
     28  OE1       -6.0570   50.3930   31.4180 O.co2  36  GLU36      -0.2457
     29  OE2       -6.2240   51.7210   29.7080 O.co2  36  GLU36      -0.2457
     30  N        -10.8540   51.4270   33.7110 N.3    40  SER40      -0.1217
     31  CA       -10.4150   50.6460   34.8630 C.3    40  SER40       0.1889
     32  C        -11.0260   50.9860   36.2090 C.2    40  SER40       0.2288
     33  O        -11.2070   50.0990   37.0440 O.2    40  SER40      -0.2866
     34  CB        -8.9000   50.7460   34.9870 C.3    40  SER40       0.2089
     35  OG        -8.4980   52.0290   35.4450 O.3    40  SER40      -0.2183
     36  N         -9.4400   52.8400   38.2870 N.3    42  ARG42      -0.1245
     37  CA        -8.2560   53.1560   39.0960 C.3    42  ARG42       0.1563
     38  C         -7.8210   54.6000   38.9310 C.2    42  ARG42       0.2260
     39  O         -7.6210   55.0700   37.8140 O.2    42  ARG42      -0.2867
     40  CB        -7.0710   52.2350   38.7610 C.3    42  ARG42       0.0307
     41  CG        -7.0650   50.8700   39.4440 C.3    42  ARG42       0.0489
     42  CD        -8.0260   49.8980   38.7850 C.3    42  ARG42       0.2205
     43  NE        -7.8430   48.5290   39.2620 N.pl3  42  ARG42      -0.0865
     44  CZ        -8.7500   47.5610   39.1450 C.cat  42  ARG42       0.5346
     45  NH1       -9.9190   47.8010   38.5610 N.pl3  42  ARG42       0.1354
     46  NH2       -8.4940   46.3500   39.6300 N.pl3  42  ARG42       0.1354
     47  N          2.7310   47.4230   37.8160 N.3    52  PHE52      -0.1241
     48  CA         1.5730   47.0820   36.9740 C.3    52  PHE52       0.1605
     49  C          1.2040   45.5910   36.9820 C.2    52  PHE52       0.2264
     50  O          0.0610   45.2420   37.2000 O.2    52  PHE52      -0.2867
     51  CB         1.7960   47.5590   35.5180 C.3    52  PHE52       0.0534
     52  CG         0.5830   47.3890   34.6280 C.ar   52  PHE52      -0.0203
     53  CD1       -0.5310   48.2350   34.7760 C.ar   52  PHE52      -0.0042
     54  CD2        0.5350   46.3590   33.6620 C.ar   52  PHE52      -0.0042
     55  CE1       -1.6920   48.0690   33.9730 C.ar   52  PHE52      -0.0003
     56  CE2       -0.6140   46.1690   32.8440 C.ar   52  PHE52      -0.0003
     57  CZ        -1.7360   47.0320   33.0000 C.ar   52  PHE52      -0.0000
     58  N         -1.0810   46.1770   40.5150 N.3    56  VAL56      -0.1231
     59  CA        -2.2660   46.8210   39.9340 C.3    56  VAL56       0.1692
     60  C         -3.0890   45.9170   39.0260 C.2    56  VAL56       0.2592
     61  O         -4.3080   45.8420   39.1660 O.2    56  VAL56      -0.2718
     62  CB        -1.8940   48.1460   39.1780 C.3    56  VAL56       0.0266
     63  CG1       -3.1300   48.7620   38.4570 C.3    56  VAL56       0.0020
     64  CG2       -1.3180   49.1520   40.1580 C.3    56  VAL56       0.0020
     65  N         -2.4050   45.2030   38.1400 N.am   57  ALA57      -0.1966
     66  CA        -3.0490   44.3340   37.1610 C.3    57  ALA57       0.1713
     67  C         -2.4840   42.9140   37.1590 C.2    57  ALA57       0.2458
     68  O         -1.7550   42.5430   36.2370 O.2    57  ALA57      -0.2730
     69  CB        -2.8740   44.9530   35.7940 C.3    57  ALA57       0.0333
     70  N         -2.8260   42.0970   38.1780 N.am   58  PRO58      -0.2716
     71  CA        -2.3180   40.7240   38.2480 C.3    58  PRO58       0.1536
     72  C         -2.8390   39.7610   37.1720 C.2    58  PRO58       0.2598
     73  O         -2.1640   38.7780   36.8670 O.2    58  PRO58      -0.2715
     74  CB        -2.6920   40.2950   39.6620 C.3    58  PRO58       0.0310
     75  CG        -3.9400   41.0450   39.9100 C.3    58  PRO58       0.0237
     76  CD        -3.6880   42.3930   39.3450 C.3    58  PRO58       0.0939
     77  N         -3.9810   40.0870   36.5460 N.am   59  CYS59      -0.1968
     78  CA        -4.5450   39.2450   35.4700 C.3    59  CYS59       0.1712
     79  C         -3.6230   39.2310   34.2540 C.2    59  CYS59       0.2296
     80  O         -3.6820   38.3230   33.4320 O.2    59  CYS59      -0.2864
     81  CB        -6.0180   39.5940   35.1620 C.3    59  CYS59       0.0983
     82  SG        -6.2940   41.1440   34.2100 S.3    59  CYS59      -0.0798
     83  N         -9.5360   41.8520   29.9200 N.3    86  PHE86      -0.1227
     84  CA        -9.3000   42.3660   31.2640 C.3    86  PHE86       0.1736
     85  C        -10.3900   41.8610   32.1850 C.2    86  PHE86       0.2595
     86  O        -11.5690   42.1560   31.9830 O.2    86  PHE86      -0.2718
     87  CB        -9.2480   43.8900   31.2840 C.3    86  PHE86       0.0547
     88  CG        -7.9080   44.4590   30.9160 C.ar   86  PHE86      -0.0202
     89  CD1       -7.8150   45.7450   30.3630 C.ar   86  PHE86      -0.0042
     90  CD2       -6.7230   43.7060   31.1030 C.ar   86  PHE86      -0.0042
     91  CE1       -6.5530   46.2840   29.9910 C.ar   86  PHE86      -0.0003
     92  CE2       -5.4600   44.2260   30.7380 C.ar   86  PHE86      -0.0003
     93  CZ        -5.3710   45.5160   30.1810 C.ar   86  PHE86      -0.0000
     94  N         -9.9810   41.0930   33.1930 N.am   87  ASP87      -0.1960
     95  CA       -10.9060   40.4840   34.1490 C.3    87  ASP87       0.1840
     96  C        -11.2270   41.3150   35.4160 C.2    87  ASP87       0.2622
     97  O        -10.8980   40.9150   36.5430 O.2    87  ASP87      -0.2715
     98  CB       -10.4060   39.0620   34.4860 C.3    87  ASP87       0.1450
     99  CG       -11.5000   38.1620   35.0440 C.2    87  ASP87       0.3671
    100  OD1      -12.4730   37.8660   34.3180 O.co2  87  ASP87      -0.2456
    101  OD2      -11.3760   37.7390   36.2060 O.co2  87  ASP87      -0.2456
    102  N        -11.9230   42.4440   35.2100 N.am   88  PHE88      -0.1974
    103  CA       -12.3530   43.3590   36.2870 C.3    88  PHE88       0.1639
    104  C        -13.4670   42.7270   37.1470 C.2    88  PHE88       0.2290
    105  O        -13.8920   41.5990   36.9010 O.2    88  PHE88      -0.2864
    106  CB       -12.8930   44.6930   35.7190 C.3    88  PHE88       0.0560
    107  CG       -11.9110   45.4770   34.8800 C.ar   88  PHE88      -0.0200
    108  CD1      -12.2480   45.8350   33.5570 C.ar   88  PHE88      -0.0042
    109  CD2      -10.6620   45.8800   35.3950 C.ar   88  PHE88      -0.0042
    110  CE1      -11.3540   46.5870   32.7420 C.ar   88  PHE88      -0.0003
    111  CE2       -9.7550   46.6290   34.5970 C.ar   88  PHE88      -0.0003
    112  CZ       -10.1000   46.9840   33.2680 C.ar   88  PHE88      -0.0000
@<TRIPOS>BOND
     1     1     2    1
     2    29    27   ar
     3     4     3    2
     4    83    84    1
     5    91    93   ar
     6    91    89   ar
     7    93    92   ar
     8    89    88   ar
     9    21    22    1
    10     3     2    1
    11    92    90   ar
    12     2     5    1
    13    27    28   ar
    14    27    26    1
    15    88    90   ar
    16    88    87    1
    17    22    25    1
    18    22    23    1
    19    84    87    1
    20    84    85    1
    21     8     6    1
    22    25    26    1
    23     5     6    1
    24     5     7    1
    25    86    85    2
    26    85    94   am
    27    23    24    2
    28   110   112   ar
    29   110   108   ar
    30    56    57   ar
    31    56    54   ar
    32    57    55   ar
    33    94    95    1
    34   112   111   ar
    35    80    79    2
    36    11    10    1
    37    11    12    2
    38   108   107   ar
    39    54    52   ar
    40    30    31    1
    41    10     9    1
    42    10    13    1
    43    55    53   ar
    44    95    98    1
    45    95    96    1
    46    82    81    1
    47    79    78    1
    48   100    99   ar
    49    98    99    1
    50   111   109   ar
    51    52    53   ar
    52    52    51    1
    53    31    34    1
    54    31    32    1
    55   107   109   ar
    56   107   106    1
    57    16    18   ar
    58    16    14   ar
    59    18    19   ar
    60    34    35    1
    61    99   101   ar
    62    14    13    1
    63    14    15   ar
    64    81    78    1
    65   102    96   am
    66   102   103    1
    67    19    20    1
    68    19    17   ar
    69    96    97    2
    70    15    17   ar
    71    78    77    1
    72    51    48    1
    73   106   103    1
    74    69    66    1
    75    32    33    2
    76    68    67    2
    77   103   104    1
    78    77    72   am
    79    73    72    2
    80   105   104    2
    81    48    49    1
    82    48    47    1
    83    49    50    2
    84    67    66    1
    85    67    70   am
    86    66    65    1
    87    72    71    1
    88    39    38    2
    89    65    60   am
    90    70    71    1
    91    70    76    1
    92    71    74    1
    93    36    37    1
    94    63    62    1
    95    45    44    1
    96    40    37    1
    97    40    41    1
    98    42    43    1
    99    42    41    1
   100    38    37    1
   101    60    61    2
   102    60    59    1
   103    44    43    2
   104    44    46    1
   105    62    59    1
   106    62    64    1
   107    76    75    1
   108    74    75    1
   109    59    58    1
