@<TRIPOS>MOLECULE
tmp/1mzvA00.pdb
 152 144 0 0 0
SMALL
GASTEIGER

@<TRIPOS>ATOM
      1  N         13.0250   44.7800   56.4480 N.3    36  ARG36      -0.1245
      2  CA        13.2530   45.3070   57.7760 C.3    36  ARG36       0.1563
      3  C         14.7080   45.6890   58.0080 C.2    36  ARG36       0.2260
      4  O         15.6210   45.0270   57.5100 O.2    36  ARG36      -0.2867
      5  CB        12.8160   44.2620   58.7770 C.3    36  ARG36       0.0307
      6  CG        12.7810   44.7420   60.1920 C.3    36  ARG36       0.0489
      7  CD        12.4680   43.6290   61.1520 C.3    36  ARG36       0.2205
      8  NE        12.6140   44.0840   62.5210 N.pl3  36  ARG36      -0.0865
      9  CZ        12.1940   43.4200   63.5800 C.cat  36  ARG36       0.5346
     10  NH1       11.5770   42.2500   63.4350 N.pl3  36  ARG36       0.1354
     11  NH2       12.3870   43.9290   64.7940 N.pl3  36  ARG36       0.1354
     12  N         17.2570   45.1840   59.9470 N.3    38  VAL38      -0.1245
     13  CA        18.0850   44.3160   60.7890 C.3    38  VAL38       0.1561
     14  C         19.2040   43.7480   59.9030 C.2    38  VAL38       0.2260
     15  O         19.0270   43.6410   58.6930 O.2    38  VAL38      -0.2867
     16  CB        17.2930   43.1310   61.4390 C.3    38  VAL38       0.0252
     17  CG1       16.3520   43.6180   62.5310 C.3    38  VAL38       0.0019
     18  CG2       16.5190   42.3230   60.4020 C.3    38  VAL38       0.0019
     19  N         20.5410   40.7580   59.6220 N.3    40  ARG40      -0.1231
     20  CA        20.2230   39.4750   59.0200 C.3    40  ARG40       0.1694
     21  C         18.7320   39.1550   59.1920 C.2    40  ARG40       0.2592
     22  O         18.2530   38.8310   60.2780 O.2    40  ARG40      -0.2718
     23  CB        21.1680   38.3830   59.5410 C.3    40  ARG40       0.0321
     24  CG        22.6350   38.8700   59.5760 C.3    40  ARG40       0.0489
     25  CD        23.6870   37.8300   59.3350 C.3    40  ARG40       0.2205
     26  NE        23.6710   36.7520   60.3110 N.pl3  40  ARG40      -0.0865
     27  CZ        24.5990   35.7960   60.3920 C.cat  40  ARG40       0.5346
     28  NH1       25.6350   35.7820   59.5420 N.pl3  40  ARG40       0.1354
     29  NH2       24.4890   34.8500   61.3330 N.pl3  40  ARG40       0.1354
     30  N         17.9930   39.3100   58.0990 N.am   41  PHE41      -0.1962
     31  CA        16.5780   38.9660   58.0940 C.3    41  PHE41       0.1771
     32  C         16.4400   37.5060   57.6790 C.2    41  PHE41       0.2619
     33  O         16.6900   37.1690   56.5360 O.2    41  PHE41      -0.2715
     34  CB        15.7860   39.8860   57.1670 C.3    41  PHE41       0.0574
     35  CG        14.2960   39.6370   57.2200 C.ar   41  PHE41      -0.0200
     36  CD1       13.6860   38.7450   56.3260 C.ar   41  PHE41      -0.0042
     37  CD2       13.5170   40.2490   58.1960 C.ar   41  PHE41      -0.0042
     38  CE1       12.3060   38.5000   56.3810 C.ar   41  PHE41      -0.0003
     39  CE2       12.1500   40.0010   58.2670 C.ar   41  PHE41      -0.0003
     40  CZ        11.5340   39.1130   57.3440 C.ar   41  PHE41      -0.0000
     41  N         16.0760   36.6420   58.6250 N.am   42  ALA42      -0.1977
     42  CA        15.8300   35.2170   58.3560 C.3    42  ALA42       0.1597
     43  C         14.5140   35.0010   57.6310 C.2    42  ALA42       0.2287
     44  O         13.4400   35.1780   58.2040 O.2    42  ALA42      -0.2864
     45  CB        15.8330   34.4350   59.6460 C.3    42  ALA42       0.0319
     46  N          1.0500   35.9840   64.7440 N.3    79  ASP79      -0.1239
     47  CA         0.8150   36.5740   63.4310 C.3    79  ASP79       0.1674
     48  C          2.1270   37.1560   62.8980 C.2    79  ASP79       0.2266
     49  O          2.7730   37.9000   63.6100 O.2    79  ASP79      -0.2867
     50  CB        -0.2020   37.6910   63.6250 C.3    79  ASP79       0.1410
     51  CG        -0.7440   38.2590   62.3290 C.2    79  ASP79       0.3668
     52  OD1       -0.3280   37.8600   61.2370 O.co2  79  ASP79      -0.2456
     53  OD2       -1.6250   39.1270   62.3260 O.co2  79  ASP79      -0.2456
     54  N          4.0010   34.6590   61.0100 N.3    81  ARG81      -0.1245
     55  CA         4.8560   33.5420   60.6590 C.3    81  ARG81       0.1563
     56  C          4.6760   32.3220   61.5530 C.2    81  ARG81       0.2260
     57  O          4.9430   31.1890   61.1480 O.2    81  ARG81      -0.2867
     58  CB         6.3020   34.0220   60.5290 C.3    81  ARG81       0.0307
     59  CG         6.4930   34.7800   59.2180 C.3    81  ARG81       0.0489
     60  CD         6.9300   36.2140   59.3880 C.3    81  ARG81       0.2205
     61  NE         8.3310   36.1540   59.6030 N.pl3  81  ARG81      -0.0865
     62  CZ         9.1530   37.1210   59.8960 C.cat  81  ARG81       0.5346
     63  NH1        8.7970   38.3910   60.0160 N.pl3  81  ARG81       0.1354
     64  NH2       10.4010   36.7560   60.0760 N.pl3  81  ARG81       0.1354
     65  N          4.8630   45.8880   70.1710 N.3   126  GLU126     -0.1245
     66  CA         3.5750   45.7400   69.5290 C.3   126  GLU126      0.1567
     67  C          2.6030   45.1910   70.5480 C.2   126  GLU126      0.2260
     68  O          2.8870   44.2150   71.2260 O.2   126  GLU126     -0.2867
     69  CB         3.6830   44.7990   68.3250 C.3   126  GLU126      0.0388
     70  CG         4.9090   45.0490   67.4460 C.3   126  GLU126      0.1160
     71  CD         5.4790   43.7710   66.8520 C.2   126  GLU126      0.3649
     72  OE1        5.2380   43.5300   65.6430 O.co2 126  GLU126     -0.2457
     73  OE2        6.1560   43.0060   67.6010 O.co2 126  GLU126     -0.2457
     74  N          6.3400   30.7060   67.1270 N.3   145  ASP145     -0.1225
     75  CA         6.6670   31.7400   66.1420 C.3   145  ASP145      0.1805
     76  C          7.9340   31.2820   65.3980 C.2   145  ASP145      0.2598
     77  O          8.5960   30.3230   65.8110 O.2   145  ASP145     -0.2718
     78  CB         6.9900   33.0300   66.8600 C.3   145  ASP145      0.1424
     79  CG         6.7770   34.2670   66.0060 C.2   145  ASP145      0.3668
     80  OD1        6.3760   34.1640   64.8160 O.co2 145  ASP145     -0.2456
     81  OD2        6.9990   35.4110   66.4800 O.co2 145  ASP145     -0.2456
     82  N          8.2810   31.9690   64.3200 N.am  146  ASP146     -0.1960
     83  CA         9.4170   31.5620   63.5480 C.3   146  ASP146      0.1840
     84  C         10.7070   31.9790   64.2170 C.2   146  ASP146      0.2622
     85  O         11.6290   31.1750   64.2660 O.2   146  ASP146     -0.2715
     86  CB         9.3410   31.9840   62.0760 C.3   146  ASP146      0.1450
     87  CG         9.5110   33.4790   61.8520 C.2   146  ASP146      0.3671
     88  OD1        9.1150   34.2900   62.7430 O.co2 146  ASP146     -0.2456
     89  OD2       10.0020   33.9110   60.7640 O.co2 146  ASP146     -0.2456
     90  N         10.7720   33.2030   64.7370 N.am  147  VAL147     -0.1963
     91  CA        12.0120   33.6880   65.3420 C.3   147  VAL147      0.1727
     92  C         11.8210   34.2980   66.7220 C.2   147  VAL147      0.2616
     93  O         10.9060   35.1240   66.9400 O.2   147  VAL147     -0.2715
     94  CB        12.7260   34.7200   64.4670 C.3   147  VAL147      0.0290
     95  CG1       14.0670   35.1040   65.0830 C.3   147  VAL147      0.0023
     96  CG2       12.9190   34.1840   63.0510 C.3   147  VAL147      0.0023
     97  N         12.7070   33.8880   67.6480 N.am  148  LEU148     -0.1963
     98  CA        12.8180   34.5070   68.9600 C.3   148  LEU148      0.1728
     99  C         14.0100   35.4210   68.9240 C.2   148  LEU148      0.2616
    100  O         15.1450   34.9630   68.8400 O.2   148  LEU148     -0.2715
    101  CB        12.9800   33.4450   70.0480 C.3   148  LEU148      0.0311
    102  CG        12.9840   34.0380   71.4500 C.3   148  LEU148      0.0022
    103  CD1       11.5650   34.3400   71.9320 C.3   148  LEU148      0.0001
    104  CD2       13.7510   33.1610   72.4610 C.3   148  LEU148      0.0001
    105  N         13.7590   36.7250   68.9960 N.am  149  ALA149     -0.1963
    106  CA        14.8260   37.7200   68.9870 C.3   149  ALA149      0.1728
    107  C         14.9520   38.3770   70.3570 C.2   149  ALA149      0.2617
    108  O         15.6170   37.8070   71.2380 O.2   149  ALA149     -0.2715
    109  CB        14.6070   38.7530   67.8330 C.3   149  ALA149      0.0334
    110  N         14.3490   39.5550   70.5610 N.am  150  THR150     -0.1937
    111  CA        14.3510   40.1810   71.8910 C.3   150  THR150      0.2028
    112  C         13.4280   39.4900   72.8870 C.2   150  THR150      0.2643
    113  O         13.6420   39.5780   74.0790 O.2   150  THR150     -0.2714
    114  CB        13.8870   41.6650   71.8470 C.3   150  THR150      0.1808
    115  OG1       12.5640   41.7260   71.3230 O.3   150  THR150     -0.2208
    116  CG2       14.7410   42.5540   70.9030 C.3   150  THR150      0.0379
    117  N         12.3510   38.8790   72.4100 N.am  151  GLY151     -0.1939
    118  CA        11.3920   38.2470   73.2950 C.3   151  GLY151      0.2014
    119  C         10.1400   39.0520   73.5600 C.2   151  GLY151      0.2639
    120  O          9.2720   38.5880   74.3000 O.2   151  GLY151     -0.2714
    121  N         10.0340   40.2360   72.9590 N.am  152  GLY152     -0.1939
    122  CA         8.8650   41.0910   73.1410 C.3   152  GLY152      0.2014
    123  C          7.5500   40.4470   72.7190 C.2   152  GLY152      0.2640
    124  O          6.5590   40.5060   73.4410 O.2   152  GLY152     -0.2714
    125  N          7.5600   39.8010   71.5480 N.am  153  THR153     -0.1936
    126  CA         6.3930   39.1080   71.0260 C.3   153  THR153      0.2028
    127  C          6.0660   37.9380   71.9480 C.2   153  THR153      0.2642
    128  O          4.9360   37.7690   72.3980 O.2   153  THR153     -0.2714
    129  CB         6.7010   38.6020   69.5960 C.3   153  THR153      0.1808
    130  OG1        7.2800   39.6800   68.8360 O.3   153  THR153     -0.2208
    131  CG2        5.4490   38.2230   68.8750 C.3   153  THR153      0.0379
    132  N          7.0880   37.1560   72.2540 N.am  154  ALA154     -0.1977
    133  CA         6.9440   36.0370   73.1740 C.3   154  ALA154      0.1597
    134  C          6.3010   36.4760   74.4970 C.2   154  ALA154      0.2287
    135  O          5.3900   35.8140   75.0040 O.2   154  ALA154     -0.2864
    136  CB         8.3140   35.3620   73.4170 C.3   154  ALA154      0.0319
    137  N         14.0190   29.5400   64.7930 N.3   175  LEU175     -0.1245
    138  CA        15.3070   30.1980   64.9790 C.3   175  LEU175      0.1561
    139  C         15.3150   30.9470   66.3200 C.2   175  LEU175      0.2260
    140  O         14.2900   31.4780   66.7400 O.2   175  LEU175     -0.2867
    141  CB        15.5780   31.1800   63.8260 C.3   175  LEU175      0.0270
    142  CG        16.9580   31.8660   63.7300 C.3   175  LEU175      0.0019
    143  CD1       18.0460   30.8940   63.3820 C.3   175  LEU175      0.0001
    144  CD2       16.9020   32.9650   62.6560 C.3   175  LEU175      0.0001
    145  N         17.9050   33.7400   68.7290 N.3   177  ILE177     -0.1245
    146  CA        19.0540   34.6310   68.6380 C.3   177  ILE177      0.1561
    147  C         19.6410   34.8650   70.0330 C.2   177  ILE177      0.2260
    148  O         19.2370   35.8080   70.7050 O.2   177  ILE177     -0.2867
    149  CB        18.6540   35.9840   67.9830 C.3   177  ILE177      0.0252
    150  CG1       18.0170   35.7430   66.6110 C.3   177  ILE177      0.0019
    151  CG2       19.8850   36.8900   67.8720 C.3   177  ILE177      0.0019
    152  CD1       17.3710   36.9750   65.9730 C.3   177  ILE177      0.0001
@<TRIPOS>BOND
     1    36    38   ar
     2    36    35   ar
     3    38    40   ar
     4     1     2    1
     5    33    32    2
     6    34    35    1
     7    34    31    1
     8    35    37   ar
     9    40    39   ar
    10     4     3    2
    11    43    44    2
    12    43    42    1
    13    32    31    1
    14    32    41   am
    15     2     3    1
    16     2     5    1
    17    31    30    1
    18    30    21   am
    19    37    39   ar
    20    42    41    1
    21    42    45    1
    22    15    14    2
    23     5     6    1
    24    20    21    1
    25    20    23    1
    26    20    19    1
    27    21    22    2
    28    59    60    1
    29    59    58    1
    30    25    24    1
    31    25    26    1
    32    60    61    1
    33    23    24    1
    34    28    27    1
    35    61    62    2
    36    62    63    1
    37    62    64    1
    38    14    13    1
    39    12    13    1
    40     6     7    1
    41    26    27    2
    42    27    29    1
    43    18    16    1
    44    58    55    1
    45    55    54    1
    46    55    56    1
    47    89    87   ar
    48    13    16    1
    49    57    56    2
    50     7     8    1
    51    52    51   ar
    52    16    17    1
    53    87    86    1
    54    87    88   ar
    55    86    83    1
    56    53    51   ar
    57    51    50    1
    58     8     9    2
    59   144   142    1
    60    48    47    1
    61    48    49    2
    62    96    94    1
    63   143   142    1
    64    47    50    1
    65    47    46    1
    66    10     9    1
    67    83    84    1
    68    83    82    1
    69     9    11    1
    70   142   141    1
    71   141   138    1
    72    84    85    2
    73    84    90   am
    74    82    76   am
    75    94    95    1
    76    94    91    1
    77    90    91    1
    78   137   138    1
    79    80    79   ar
    80   138   139    1
    81    91    92    1
    82    76    77    2
    83    76    75    1
    84    72    71   ar
    85   152   150    1
    86    79    81   ar
    87    79    78    1
    88    75    78    1
    89    75    74    1
    90   139   140    2
    91   150   149    1
    92    92    93    2
    93    92    97   am
    94    71    70    1
    95    71    73   ar
    96    70    69    1
    97    97    98    1
    98   109   106    1
    99   151   149    1
   100   149   146    1
   101    69    66    1
   102   146   145    1
   103   146   147    1
   104   130   129    1
   105   100    99    2
   106   131   129    1
   107    99    98    1
   108    99   105   am
   109    98   101    1
   110   106   105    1
   111   106   107    1
   112    66    65    1
   113    66    67    1
   114   129   126    1
   115   147   148    2
   116   101   102    1
   117   107   110   am
   118   107   108    2
   119    67    68    2
   120   110   111    1
   121   116   114    1
   122   126   125    1
   123   126   127    1
   124   115   114    1
   125   102   103    1
   126   102   104    1
   127   125   123   am
   128   114   111    1
   129   111   112    1
   130   127   132   am
   131   127   128    2
   132   132   133    1
   133   117   112   am
   134   117   118    1
   135   123   122    1
   136   123   124    2
   137   112   113    2
   138   121   122    1
   139   121   119   am
   140   133   136    1
   141   133   134    1
   142   118   119    1
   143   119   120    2
   144   134   135    2
