@<TRIPOS>MOLECULE
tmp/1n06B00.pdb
 169 168 0 0 0
SMALL
GASTEIGER

@<TRIPOS>ATOM
      1  N          5.0660   14.0930   37.3550 N.3    23  VAL23      -0.1231
      2  CA         6.0400   15.0820   36.9060 C.3    23  VAL23       0.1692
      3  C          7.3450   14.7940   37.6270 C.2    23  VAL23       0.2592
      4  O          7.3800   14.7450   38.8580 O.2    23  VAL23      -0.2718
      5  CB         5.5810   16.5210   37.2310 C.3    23  VAL23       0.0266
      6  CG1        6.6690   17.5260   36.8490 C.3    23  VAL23       0.0020
      7  CG2        4.2870   16.8290   36.4900 C.3    23  VAL23       0.0020
      8  N          8.4130   14.6100   36.8560 N.am   24  VAL24      -0.1966
      9  CA         9.7280   14.3090   37.4080 C.3    24  VAL24       0.1727
     10  C         10.8210   15.2150   36.8350 C.2    24  VAL24       0.2616
     11  O         10.6100   15.8980   35.8340 O.2    24  VAL24      -0.2715
     12  CB        10.1010   12.8270   37.1310 C.3    24  VAL24       0.0290
     13  CG1        9.0160   11.9200   37.6780 C.3    24  VAL24       0.0023
     14  CG2       10.2970   12.5910   35.6410 C.3    24  VAL24       0.0023
     15  N         11.9870   15.2170   37.4730 N.am   25  HIS25      -0.1959
     16  CA        13.1100   16.0370   37.0300 C.3    25  HIS25       0.1787
     17  C         13.8090   15.4370   35.8130 C.2    25  HIS25       0.2620
     18  O         13.7960   14.2260   35.6120 O.2    25  HIS25      -0.2715
     19  CB        14.1400   16.1980   38.1570 C.3    25  HIS25       0.0785
     20  CG        13.6280   16.9420   39.3540 C.ar   25  HIS25       0.0821
     21  ND1       12.6970   16.4110   40.2240 N.ar   25  HIS25      -0.2267
     22  CD2       13.9230   18.1780   39.8290 C.ar   25  HIS25       0.1154
     23  CE1       12.4450   17.2840   41.1830 C.ar   25  HIS25       0.1986
     24  NE2       13.1760   18.3650   40.9670 N.ar   25  HIS25      -0.2212
     25  N         14.4210   16.2930   35.0030 N.am   26  GLY26      -0.1954
     26  CA        15.1340   15.8220   33.8310 C.3    26  GLY26       0.1869
     27  C         16.6130   15.7350   34.1620 C.2    26  GLY26       0.2309
     28  O         16.9980   15.0970   35.1490 O.2    26  GLY26      -0.2863
     29  N         18.6070   18.7250   34.1970 N.3    28  GLY28      -0.1210
     30  CA        19.0420   20.1020   34.3730 C.3    28  GLY28       0.1956
     31  C         19.0130   20.9080   33.0880 C.2    28  GLY28       0.2612
     32  O         19.8650   21.7750   32.8650 O.2    28  GLY28      -0.2717
     33  N         18.0280   20.6230   32.2390 N.am   29  ARG29      -0.1965
     34  CA        17.8780   21.3320   30.9700 C.3    29  ARG29       0.1729
     35  C         17.9140   22.8440   31.1700 C.2    29  ARG29       0.2617
     36  O         18.8140   23.5240   30.6720 O.2    29  ARG29      -0.2715
     37  CB        16.5580   20.9470   30.2980 C.3    29  ARG29       0.0348
     38  CG        16.2610   21.7450   29.0450 C.3    29  ARG29       0.0492
     39  CD        14.8940   21.4110   28.4810 C.3    29  ARG29       0.2205
     40  NE        14.6540   22.1140   27.2230 N.pl3  29  ARG29      -0.0865
     41  CZ        13.6050   21.9070   26.4330 C.cat  29  ARG29       0.5346
     42  NH1       13.4740   22.5980   25.3020 N.pl3  29  ARG29       0.1354
     43  NH2       12.6880   21.0100   26.7780 N.pl3  29  ARG29       0.1354
     44  N         16.9280   23.3570   31.9020 N.am   30  GLY30      -0.1940
     45  CA        16.8520   24.7830   32.1610 C.3    30  GLY30       0.2014
     46  C         15.6990   25.4420   31.4300 C.2    30  GLY30       0.2640
     47  O         15.8210   26.5750   30.9660 O.2    30  GLY30      -0.2714
     48  N         14.5730   24.7380   31.3350 N.am   31  SER31      -0.1935
     49  CA        13.4020   25.2660   30.6470 C.3    31  SER31       0.2055
     50  C         12.9580   26.6070   31.2370 C.2    31  SER31       0.2642
     51  O         12.4780   27.4830   30.5110 O.2    31  SER31      -0.2714
     52  CB        12.2470   24.2490   30.6840 C.3    31  SER31       0.2130
     53  OG        11.8180   23.9540   32.0060 O.3    31  SER31      -0.2179
     54  N         13.1250   26.7740   32.5470 N.am   32  LYS32      -0.1977
     55  CA        12.7590   28.0300   33.1970 C.3    32  LYS32       0.1596
     56  C         13.6660   29.1820   32.7680 C.2    32  LYS32       0.2287
     57  O         13.2130   30.3180   32.6620 O.2    32  LYS32      -0.2864
     58  CB        12.8230   27.8990   34.7150 C.3    32  LYS32       0.0298
     59  CG        11.6570   27.1850   35.3420 C.3    32  LYS32       0.0038
     60  CD        11.7980   27.2240   36.8610 C.3    32  LYS32       0.0206
     61  CE        10.8910   26.2010   37.5280 C.3    32  LYS32       0.1093
     62  NZ        11.1220   26.1550   38.9900 N.3    32  LYS32      -0.1314
     63  N          9.0960   27.1050   31.1890 N.3    37  PRO37      -0.2102
     64  CA         9.2840   25.8560   31.9300 C.3    37  PRO37       0.1504
     65  C          8.4560   24.6970   31.3910 C.2    37  PRO37       0.2576
     66  O          7.2840   24.8590   31.0460 O.2    37  PRO37      -0.2718
     67  CB         8.8970   26.2440   33.3560 C.3    37  PRO37       0.0282
     68  CG         7.8450   27.2690   33.1390 C.3    37  PRO37       0.0208
     69  CD         8.4270   28.1130   32.0320 C.3    37  PRO37       0.0893
     70  N          9.0850   23.5300   31.3280 N.am   38  THR38      -0.1939
     71  CA         8.4380   22.3230   30.8390 C.3    38  THR38       0.2028
     72  C          8.5250   21.2010   31.8660 C.2    38  THR38       0.2642
     73  O          9.5650   21.0080   32.4910 O.2    38  THR38      -0.2714
     74  CB         9.0840   21.8440   29.5350 C.3    38  THR38       0.1808
     75  OG1       10.4860   21.6330   29.7530 O.3    38  THR38      -0.2208
     76  CG2        8.8910   22.8880   28.4450 C.3    38  THR38       0.0379
     77  N          7.4260   20.4670   32.0320 N.am   39  ALA39      -0.1963
     78  CA         7.3640   19.3630   32.9840 C.3    39  ALA39       0.1728
     79  C          7.6950   18.0170   32.3340 C.2    39  ALA39       0.2616
     80  O          7.0410   17.6190   31.3680 O.2    39  ALA39      -0.2715
     81  CB         5.9690   19.3100   33.6020 C.3    39  ALA39       0.0334
     82  N          8.6970   17.3110   32.8570 N.am   40  ASN40      -0.1972
     83  CA         9.0710   16.0020   32.2990 C.3    40  ASN40       0.1688
     84  C          8.1200   14.9180   32.7960 C.2    40  ASN40       0.2292
     85  O          7.9310   14.7650   34.0020 O.2    40  ASN40      -0.2864
     86  CB        10.4860   15.6010   32.7140 C.3    40  ASN40       0.1181
     87  CG        11.5450   16.5330   32.1800 C.2    40  ASN40       0.2629
     88  OD1       12.1900   17.2560   32.9450 O.2    40  ASN40      -0.2716
     89  ND2       11.7360   16.5280   30.8650 N.am   40  ASN40      -0.0877
     90  N          6.0000   18.6130   28.9250 N.3    90  VAL90      -0.1231
     91  CA         4.8010   19.4200   28.8030 C.3    90  VAL90       0.1692
     92  C          4.8850   20.8090   29.4220 C.2    90  VAL90       0.2592
     93  O          5.2890   20.9710   30.5770 O.2    90  VAL90      -0.2718
     94  CB         3.6070   18.6960   29.4440 C.3    90  VAL90       0.0266
     95  CG1        2.3670   19.6050   29.4340 C.3    90  VAL90       0.0020
     96  CG2        3.3280   17.4040   28.7000 C.3    90  VAL90       0.0020
     97  N          4.5030   21.8120   28.6420 N.am   91  HIS91      -0.1962
     98  CA         4.4910   23.1800   29.1230 C.3    91  HIS91       0.1787
     99  C          3.0440   23.6340   29.2280 C.2    91  HIS91       0.2620
    100  O          2.3410   23.7090   28.2300 O.2    91  HIS91      -0.2715
    101  CB         5.2430   24.0960   28.1650 C.3    91  HIS91       0.0785
    102  CG         5.0130   25.5480   28.4290 C.ar   91  HIS91       0.0821
    103  ND1        5.3200   26.1480   29.6320 N.ar   91  HIS91      -0.2267
    104  CD2        4.4540   26.5110   27.6610 C.ar   91  HIS91       0.1154
    105  CE1        4.9550   27.4170   29.5940 C.ar   91  HIS91       0.1986
    106  NE2        4.4270   27.6630   28.4090 N.ar   91  HIS91      -0.2212
    107  N          2.5940   23.9120   30.4430 N.am   92  LEU92      -0.1977
    108  CA         1.2370   24.3790   30.6520 C.3    92  LEU92       0.1596
    109  C          1.2450   25.8460   30.2180 C.2    92  LEU92       0.2287
    110  O          2.0830   26.6310   30.6720 O.2    92  LEU92      -0.2864
    111  CB         0.8580   24.2450   32.1330 C.3    92  LEU92       0.0297
    112  CG         1.0020   22.8410   32.7430 C.3    92  LEU92       0.0022
    113  CD1        0.5670   22.8470   34.2080 C.3    92  LEU92       0.0001
    114  CD2        0.1870   21.8460   31.9400 C.3    92  LEU92       0.0001
    115  N          0.0910   29.5670   32.6470 N.3    95  ARG95      -0.1245
    116  CA        -0.0250   29.0480   33.9970 C.3    95  ARG95       0.1563
    117  C          1.0450   29.6960   34.8510 C.2    95  ARG95       0.2260
    118  O          2.2040   29.7480   34.4530 O.2    95  ARG95      -0.2867
    119  CB         0.1580   27.5340   33.9910 C.3    95  ARG95       0.0307
    120  CG        -0.1600   26.8530   35.3050 C.3    95  ARG95       0.0489
    121  CD         1.0690   26.5630   36.1230 C.3    95  ARG95       0.2205
    122  NE         0.7280   25.8310   37.3410 N.pl3  95  ARG95      -0.0865
    123  CZ         1.5460   25.6750   38.3780 C.cat  95  ARG95       0.5346
    124  NH1        2.7630   26.2010   38.3500 N.pl3  95  ARG95       0.1354
    125  NH2        1.1470   24.9940   39.4440 N.pl3  95  ARG95       0.1354
    126  N          2.6740   29.9320   38.8750 N.3    97  GLY97      -0.1210
    127  CA         2.6840   29.2780   40.1670 C.3    97  GLY97       0.1956
    128  C          3.9490   28.4900   40.4200 C.2    97  GLY97       0.2612
    129  O          4.8350   28.4250   39.5670 O.2    97  GLY97      -0.2717
    130  N          4.0170   27.8910   41.6050 N.am   98  GLU98      -0.1965
    131  CA         5.1670   27.0960   42.0250 C.3    98  GLU98       0.1733
    132  C          5.2850   25.7700   41.2720 C.2    98  GLU98       0.2616
    133  O          4.3840   25.3770   40.5230 O.2    98  GLU98      -0.2715
    134  CB         5.0770   26.8290   43.5380 C.3    98  GLU98       0.0429
    135  CG         5.0020   28.0880   44.4190 C.3    98  GLU98       0.1163
    136  CD         6.2940   28.8990   44.4240 C.2    98  GLU98       0.3649
    137  OE1        7.2040   28.5790   43.6300 O.co2  98  GLU98      -0.2457
    138  OE2        6.3900   29.8670   45.2140 O.co2  98  GLU98      -0.2457
    139  N          6.4090   25.0860   41.4810 N.am   99  ASP99      -0.1957
    140  CA         6.6530   23.7920   40.8480 C.3    99  ASP99       0.1840
    141  C          5.6500   22.7720   41.3510 C.2    99  ASP99       0.2622
    142  O          4.9890   22.9920   42.3590 O.2    99  ASP99      -0.2715
    143  CB         8.0610   23.2900   41.1560 C.3    99  ASP99       0.1450
    144  CG         9.1340   24.1760   40.5610 C.2    99  ASP99       0.3671
    145  OD1        8.8340   24.8940   39.5810 O.co2  99  ASP99      -0.2456
    146  OD2       10.2810   24.1450   41.0640 O.co2  99  ASP99      -0.2456
    147  N          5.5320   21.6550   40.6420 N.am  100  PHE100     -0.1960
    148  CA         4.5920   20.6210   41.0450 C.3   100  PHE100      0.1771
    149  C          5.1220   19.2180   40.8330 C.2   100  PHE100      0.2619
    150  O          4.3940   18.3160   40.4100 O.2   100  PHE100     -0.2715
    151  CB         3.2550   20.8190   40.3280 C.3   100  PHE100      0.0574
    152  CG         3.3800   21.1960   38.8790 C.ar  100  PHE100     -0.0200
    153  CD1        3.4410   20.2150   37.8950 C.ar  100  PHE100     -0.0042
    154  CD2        3.4190   22.5360   38.4930 C.ar  100  PHE100     -0.0042
    155  CE1        3.5370   20.5570   36.5420 C.ar  100  PHE100     -0.0003
    156  CE2        3.5150   22.8940   37.1550 C.ar  100  PHE100     -0.0003
    157  CZ         3.5740   21.9000   36.1710 C.ar  100  PHE100     -0.0000
    158  N          6.4020   19.0410   41.1400 N.am  101  TYR101     -0.1974
    159  CA         7.0500   17.7470   41.0060 C.3   101  TYR101      0.1639
    160  C          6.3260   16.6740   41.8260 C.2   101  TYR101      0.2290
    161  O          5.7110   16.9750   42.8550 O.2   101  TYR101     -0.2864
    162  CB         8.5000   17.8540   41.4640 C.3   101  TYR101      0.0560
    163  CG         9.3720   18.6330   40.5210 C.ar  101  TYR101     -0.0198
    164  CD1        9.7450   19.9520   40.7930 C.ar  101  TYR101     -0.0009
    165  CD2        9.8520   18.0390   39.3540 C.ar  101  TYR101     -0.0009
    166  CE1       10.5880   20.6570   39.9200 C.ar  101  TYR101      0.0417
    167  CE2       10.6870   18.7310   38.4800 C.ar  101  TYR101      0.0417
    168  CZ        11.0510   20.0310   38.7710 C.ar  101  TYR101      0.1957
    169  OH        11.8950   20.6900   37.9140 O.3   101  TYR101     -0.2866
@<TRIPOS>BOND
     1    42    41    1
     2    41    43    1
     3    41    40    2
     4    40    39    1
     5   104   106   ar
     6   104   102   ar
     7   101   102    1
     8   101    98    1
     9   100    99    2
    10   106   105   ar
    11   102   103   ar
    12    76    74    1
    13    39    38    1
    14    97    98    1
    15    97    92   am
    16    96    94    1
    17    91    90    1
    18    91    92    1
    19    91    94    1
    20    38    37    1
    21    98    99    1
    22    99   107   am
    23    92    93    2
    24    95    94    1
    25    74    75    1
    26    74    71    1
    27   105   103   ar
    28   109   108    1
    29   109   110    2
    30    37    34    1
    31   107   108    1
    32    51    50    2
    33    49    52    1
    34    49    50    1
    35    49    48    1
    36   108   111    1
    37    36    35    2
    38    52    53    1
    39    71    70    1
    40    71    72    1
    41    89    87   am
    42    47    46    2
    43    34    35    1
    44    34    33    1
    45    66    65    2
    46    35    44   am
    47    63    64    1
    48    63    69    1
    49    50    54   am
    50    70    65   am
    51    48    46   am
    52    80    79    2
    53    65    64    1
    54    46    45    1
    55    72    77   am
    56    72    73    2
    57    44    45    1
    58    64    67    1
    59   114   112    1
    60    69    68    1
    61    77    78    1
    62   111   112    1
    63    87    86    1
    64    87    88    2
    65    33    31   am
    66    83    86    1
    67    83    84    1
    68    83    82    1
    69    79    82   am
    70    79    78    1
    71    54    55    1
    72   115   116    1
    73    57    56    2
    74   112   113    1
    75    56    55    1
    76    84    85    2
    77    32    31    2
    78    78    81    1
    79    31    30    1
    80    68    67    1
    81    55    58    1
    82    26    27    1
    83    26    25    1
    84   119   116    1
    85   119   120    1
    86   116   117    1
    87    27    28    2
    88    29    30    1
    89   118   117    2
    90    58    59    1
    91    25    17   am
    92   120   121    1
    93    59    60    1
    94    18    17    2
    95    14    12    1
    96    17    16    1
    97    11    10    2
    98   121   122    1
    99   157   155   ar
   100   157   156   ar
   101     7     5    1
   102   155   153   ar
   103    10     9    1
   104    10    15   am
   105     6     5    1
   106     8     9    1
   107     8     3   am
   108    60    61    1
   109     2     5    1
   110     2     1    1
   111     2     3    1
   112    16    15    1
   113    16    19    1
   114    12     9    1
   115    12    13    1
   116   156   154   ar
   117   122   123    2
   118    61    62    1
   119     3     4    2
   120   153   152   ar
   121   169   168    1
   122    19    20    1
   123   124   123    1
   124   123   125    1
   125   167   168   ar
   126   167   165   ar
   127   154   152   ar
   128   168   166   ar
   129   126   127    1
   130   152   151    1
   131   165   163   ar
   132    20    22   ar
   133    20    21   ar
   134   129   128    2
   135   145   144   ar
   136    22    24   ar
   137   166   164   ar
   138   127   128    1
   139    21    23   ar
   140   151   148    1
   141   150   149    2
   142   128   130   am
   143   163   164   ar
   144   163   162    1
   145   133   132    2
   146   144   146   ar
   147   144   143    1
   148   147   148    1
   149   147   141   am
   150   149   148    1
   151   149   158   am
   152   140   143    1
   153   140   141    1
   154   140   139    1
   155    24    23   ar
   156   159   158    1
   157   159   162    1
   158   159   160    1
   159   132   139   am
   160   132   131    1
   161   141   142    2
   162   130   131    1
   163   160   161    2
   164   131   134    1
   165   134   135    1
   166   137   136   ar
   167   135   136    1
   168   136   138   ar
