@<TRIPOS>MOLECULE
tmp/1n07B01.pdb
 193 181 0 0 0
SMALL
GASTEIGER

@<TRIPOS>ATOM
      1  N         14.2190   16.6370   34.7880 N.3    26  GLY26      -0.1210
      2  CA        14.8830   16.2780   33.5540 C.3    26  GLY26       0.1956
      3  C         16.3760   16.3440   33.7610 C.2    26  GLY26       0.2611
      4  O         16.8670   16.0230   34.8460 O.2    26  GLY26      -0.2717
      5  N         17.1080   16.7640   32.7370 N.am   27  PHE27      -0.1976
      6  CA        18.5530   16.8610   32.8620 C.3    27  PHE27       0.1639
      7  C         19.0180   18.3020   33.0430 C.2    27  PHE27       0.2290
      8  O         20.1180   18.6650   32.6220 O.2    27  PHE27      -0.2864
      9  CB        19.2420   16.2270   31.6470 C.3    27  PHE27       0.0560
     10  CG        18.9170   14.7740   31.4650 C.ar   27  PHE27      -0.0200
     11  CD1       17.8650   14.3790   30.6410 C.ar   27  PHE27      -0.0042
     12  CD2       19.6290   13.7940   32.1570 C.ar   27  PHE27      -0.0042
     13  CE1       17.5240   13.0320   30.5090 C.ar   27  PHE27      -0.0003
     14  CE2       19.2940   12.4420   32.0340 C.ar   27  PHE27      -0.0003
     15  CZ        18.2400   12.0630   31.2080 C.ar   27  PHE27      -0.0000
     16  N         17.9410   21.2510   31.6780 N.3    29  ARG29      -0.1245
     17  CA        18.1010   22.0150   30.4440 C.3    29  ARG29       0.1563
     18  C         18.0360   23.5110   30.7290 C.2    29  ARG29       0.2260
     19  O         18.7320   24.3050   30.0910 O.2    29  ARG29      -0.2867
     20  CB        17.0040   21.6340   29.4410 C.3    29  ARG29       0.0307
     21  CG        15.5890   21.6620   30.0140 C.3    29  ARG29       0.0489
     22  CD        14.5350   21.4760   28.9370 C.3    29  ARG29       0.2205
     23  NE        14.3450   22.6730   28.1180 N.pl3  29  ARG29      -0.0865
     24  CZ        13.5440   22.7320   27.0550 C.cat  29  ARG29       0.5346
     25  NH1       13.4250   23.8610   26.3660 N.pl3  29  ARG29       0.1354
     26  NH2       12.8640   21.6570   26.6730 N.pl3  29  ARG29       0.1354
     27  N         10.6360   29.6190   29.3820 N.3    36  ILE36      -0.1245
     28  CA         9.6470   28.6290   28.9820 C.3    36  ILE36       0.1561
     29  C          9.9010   27.3050   29.6920 C.2    36  ILE36       0.2260
     30  O         10.4660   26.3690   29.1210 O.2    36  ILE36      -0.2867
     31  CB         9.6910   28.4130   27.4510 C.3    36  ILE36       0.0252
     32  CG1        9.5580   29.7620   26.7350 C.3    36  ILE36       0.0019
     33  CG2        8.5820   27.4580   27.0250 C.3    36  ILE36       0.0019
     34  CD1        8.2990   30.5520   27.1020 C.3    36  ILE36       0.0001
     35  N          9.6880   23.6480   31.0600 N.3    38  THR38      -0.1218
     36  CA         9.1570   22.4430   30.4630 C.3    38  THR38       0.1862
     37  C          9.1150   21.3240   31.5110 C.2    38  THR38       0.2287
     38  O         10.1250   21.0600   32.1610 O.2    38  THR38      -0.2866
     39  CB        10.0440   22.0000   29.3060 C.3    38  THR38       0.1770
     40  OG1       11.3800   21.7740   29.8000 O.3    38  THR38      -0.2211
     41  CG2       10.0800   23.0580   28.2320 C.3    38  THR38       0.0375
     42  N          9.0900   17.4880   32.4760 N.3    40  ASN40      -0.1240
     43  CA         9.4160   16.1620   31.9220 C.3    40  ASN40       0.1653
     44  C          8.4950   15.1030   32.5160 C.2    40  ASN40       0.2266
     45  O          8.4340   14.9470   33.7350 O.2    40  ASN40      -0.2867
     46  CB        10.8490   15.7420   32.2390 C.3    40  ASN40       0.1155
     47  CG        11.8790   16.5400   31.4850 C.2    40  ASN40       0.2627
     48  OD1       12.5940   17.3430   32.0660 O.2    40  ASN40      -0.2716
     49  ND2       11.9540   16.3290   30.1760 N.am   40  ASN40      -0.0877
     50  N          6.3760   18.4450   17.9180 N.3    57  VAL57      -0.1245
     51  CA         5.5840   19.2630   18.8090 C.3    57  VAL57       0.1561
     52  C          4.1100   18.9580   18.6460 C.2    57  VAL57       0.2260
     53  O          3.5990   18.9710   17.5280 O.2    57  VAL57      -0.2867
     54  CB         5.8060   20.7530   18.5130 C.3    57  VAL57       0.0252
     55  CG1        5.0230   21.6130   19.5030 C.3    57  VAL57       0.0019
     56  CG2        7.2800   21.0630   18.5640 C.3    57  VAL57       0.0019
     57  N          1.5520   22.6100   24.8460 N.3    72  VAL72      -0.1245
     58  CA         2.3120   22.1060   23.7220 C.3    72  VAL72       0.1561
     59  C          3.2580   21.0730   24.2990 C.2    72  VAL72       0.2260
     60  O          3.8320   21.2870   25.3640 O.2    72  VAL72      -0.2867
     61  CB         3.1130   23.2120   23.0350 C.3    72  VAL72       0.0252
     62  CG1        2.2290   23.9070   22.0310 C.3    72  VAL72       0.0019
     63  CG2        3.6380   24.2040   24.0650 C.3    72  VAL72       0.0019
     64  N          6.5250   18.3660   23.4230 N.3    74  SER74      -0.1217
     65  CA         7.5960   17.9090   22.5520 C.3    74  SER74       0.1889
     66  C          7.9370   16.4490   22.8230 C.2    74  SER74       0.2288
     67  O          8.2470   16.0720   23.9570 O.2    74  SER74      -0.2866
     68  CB         8.8550   18.7390   22.7630 C.3    74  SER74       0.2089
     69  OG         9.9010   18.2540   21.9440 O.3    74  SER74      -0.2183
     70  N         18.6030   10.9450   24.0150 N.3    79  PRO79      -0.2102
     71  CA        19.9010   10.9090   23.3260 C.3    79  PRO79       0.1504
     72  C         20.9870   10.1440   24.0690 C.2    79  PRO79       0.2575
     73  O         21.9250    9.6170   23.4620 O.2    79  PRO79      -0.2718
     74  CB        20.2580   12.3890   23.1930 C.3    79  PRO79       0.0282
     75  CG        18.9170   13.0700   23.1870 C.3    79  PRO79       0.0208
     76  CD        18.2090   12.3370   24.2900 C.3    79  PRO79       0.0893
     77  N         20.8560   10.0890   25.3890 N.am   80  TYR80      -0.1977
     78  CA        21.8310    9.4200   26.2360 C.3    80  TYR80       0.1639
     79  C         21.6640    7.9070   26.2490 C.2    80  TYR80       0.2290
     80  O         22.3200    7.2110   27.0290 O.2    80  TYR80      -0.2864
     81  CB        21.7400    9.9880   27.6550 C.3    80  TYR80       0.0560
     82  CG        21.6160   11.5010   27.6690 C.ar   80  TYR80      -0.0198
     83  CD1       20.4770   12.1270   28.1850 C.ar   80  TYR80      -0.0009
     84  CD2       22.6200   12.3060   27.1250 C.ar   80  TYR80      -0.0009
     85  CE1       20.3430   13.5160   28.1570 C.ar   80  TYR80       0.0417
     86  CE2       22.4960   13.6950   27.0900 C.ar   80  TYR80       0.0417
     87  CZ        21.3580   14.2940   27.6050 C.ar   80  TYR80       0.1957
     88  OH        21.2490   15.6690   27.5590 O.3    80  TYR80      -0.2866
     89  N         10.7230   10.1920   25.1490 N.3    87  SER87      -0.1217
     90  CA        10.7330   11.2640   26.1270 C.3    87  SER87       0.1889
     91  C          9.6080   12.2310   25.7900 C.2    87  SER87       0.2288
     92  O          9.2590   12.3770   24.6290 O.2    87  SER87      -0.2866
     93  CB        12.0750   11.9980   26.0730 C.3    87  SER87       0.2089
     94  OG        12.2800   12.5440   24.7850 O.3    87  SER87      -0.2183
     95  N          7.9280   16.2170   27.0170 N.3    89  GLU89      -0.1245
     96  CA         8.0440   17.4490   27.7960 C.3    89  GLU89       0.1567
     97  C          6.8350   18.3360   27.5650 C.2    89  GLU89       0.2260
     98  O          6.4980   18.6580   26.4160 O.2    89  GLU89      -0.2867
     99  CB         9.2850   18.2330   27.3890 C.3    89  GLU89       0.0388
    100  CG        10.5890   17.5850   27.7320 C.3    89  GLU89       0.1160
    101  CD        11.7430   18.5220   27.4680 C.2    89  GLU89       0.3649
    102  OE1       11.9680   18.8720   26.2900 O.co2  89  GLU89      -0.2457
    103  OE2       12.4130   18.9230   28.4480 O.co2  89  GLU89      -0.2457
    104  N          4.7170   21.9660   28.3170 N.3    91  HIS91      -0.1241
    105  CA         4.7390   23.3360   28.7630 C.3    91  HIS91       0.1621
    106  C          3.3260   23.8040   28.8640 C.2    91  HIS91       0.2264
    107  O          2.6310   23.8800   27.8660 O.2    91  HIS91      -0.2867
    108  CB         5.4500   24.2400   27.7880 C.3    91  HIS91       0.0745
    109  CG         5.2610   25.6870   28.1100 C.ar   91  HIS91       0.0817
    110  ND1        5.7510   26.2630   29.2630 N.ar   91  HIS91      -0.2268
    111  CD2        4.5980   26.6670   27.4520 C.ar   91  HIS91       0.1154
    112  CE1        5.3990   27.5370   29.2980 C.ar   91  HIS91       0.1986
    113  NE2        4.6990   27.8070   28.2100 N.ar   91  HIS91      -0.2212
    114  N          4.2250   20.0820   14.2400 N.3   114  ARG114     -0.1245
    115  CA         5.3270   19.9700   13.2910 C.3   114  ARG114      0.1563
    116  C          6.4390   19.1040   13.8590 C.2   114  ARG114      0.2260
    117  O          6.5050   18.8740   15.0560 O.2   114  ARG114     -0.2867
    118  CB         5.9280   21.3490   13.0190 C.3   114  ARG114      0.0307
    119  CG         6.5630   21.9660   14.2810 C.3   114  ARG114      0.0489
    120  CD         7.4540   23.1750   13.9840 C.3   114  ARG114      0.2205
    121  NE         8.0520   23.7120   15.2070 N.pl3 114  ARG114     -0.0865
    122  CZ         8.9870   23.0890   15.9220 C.cat 114  ARG114      0.5346
    123  NH1        9.4690   23.6470   17.0230 N.pl3 114  ARG114      0.1354
    124  NH2        9.4440   21.9110   15.5240 N.pl3 114  ARG114      0.1354
    125  N         10.3680   18.1510   14.8450 N.3   116  GLU116     -0.1231
    126  CA        11.4150   18.9120   15.5100 C.3   116  GLU116      0.1699
    127  C         12.2250   19.6520   14.4530 C.2   116  GLU116      0.2592
    128  O         12.6870   19.0560   13.4790 O.2   116  GLU116     -0.2718
    129  CB        12.3200   17.9580   16.2880 C.3   116  GLU116      0.0402
    130  CG        12.8460   18.5100   17.6000 C.3   116  GLU116      0.1161
    131  CD        11.8010   18.4960   18.6990 C.2   116  GLU116      0.3649
    132  OE1       10.7260   19.0960   18.5030 O.co2 116  GLU116     -0.2457
    133  OE2       12.0560   17.8930   19.7620 O.co2 116  GLU116     -0.2457
    134  N         12.3790   20.9550   14.6470 N.am  117  LEU117     -0.1966
    135  CA        13.1220   21.7900   13.7160 C.3   117  LEU117      0.1728
    136  C         14.6130   21.7260   13.9970 C.2   117  LEU117      0.2616
    137  O         15.0550   21.0560   14.9340 O.2   117  LEU117     -0.2715
    138  CB        12.6340   23.2340   13.8110 C.3   117  LEU117      0.0311
    139  CG        11.2510   23.5220   13.2240 C.3   117  LEU117      0.0022
    140  CD1       10.8310   24.9370   13.5760 C.3   117  LEU117      0.0001
    141  CD2       11.2860   23.3320   11.7110 C.3   117  LEU117      0.0001
    142  N         15.3960   22.4180   13.1800 N.am  118  ASN118     -0.1958
    143  CA        16.8330   22.4250   13.3770 C.3   118  ASN118      0.1819
    144  C         17.1680   23.2810   14.5860 C.2   118  ASN118      0.2621
    145  O         16.5050   23.1880   15.6230 O.2   118  ASN118     -0.2715
    146  CB        17.5500   22.9700   12.1460 C.3   118  ASN118      0.1195
    147  CG        19.0240   22.6420   12.1540 C.2   118  ASN118      0.2630
    148  OD1       19.7630   22.9930   11.2280 O.2   118  ASN118     -0.2716
    149  ND2       19.4640   21.9550   13.2070 N.am  118  ASN118     -0.0877
    150  N         18.1830   24.1260   14.4520 N.am  119  TYR119     -0.1974
    151  CA        18.5910   24.9760   15.5580 C.3   119  TYR119      0.1639
    152  C         19.6840   25.9550   15.1340 C.2   119  TYR119      0.2290
    153  O         20.6490   25.5830   14.4590 O.2   119  TYR119     -0.2864
    154  CB        19.0860   24.0870   16.7110 C.3   119  TYR119      0.0560
    155  CG        18.8490   24.6500   18.1000 C.ar  119  TYR119     -0.0198
    156  CD1       18.9340   23.8270   19.2280 C.ar  119  TYR119     -0.0009
    157  CD2       18.5720   26.0030   18.2920 C.ar  119  TYR119     -0.0009
    158  CE1       18.7530   24.3380   20.5090 C.ar  119  TYR119      0.0417
    159  CE2       18.3910   26.5240   19.5670 C.ar  119  TYR119      0.0417
    160  CZ        18.4840   25.6910   20.6720 C.ar  119  TYR119      0.1957
    161  OH        18.3280   26.2230   21.9350 O.3   119  TYR119     -0.2866
    162  N         15.1460   29.0850   18.6820 N.3   125  LEU125     -0.1245
    163  CA        14.3490   28.0700   19.3670 C.3   125  LEU125      0.1561
    164  C         13.1950   28.7400   20.1110 C.2   125  LEU125      0.2260
    165  O         12.0370   28.3350   19.9720 O.2   125  LEU125     -0.2867
    166  CB        15.2140   27.2870   20.3620 C.3   125  LEU125      0.0270
    167  CG        14.6240   25.9670   20.8740 C.3   125  LEU125      0.0019
    168  CD1       14.7050   24.9400   19.7610 C.3   125  LEU125      0.0001
    169  CD2       15.3810   25.4650   22.0940 C.3   125  LEU125      0.0001
    170  N         10.6170   29.6590   17.7950 N.3   128  ASP128     -0.1225
    171  CA         9.8820   28.4900   17.3450 C.3   128  ASP128      0.1805
    172  C          8.8570   28.0430   18.3670 C.2   128  ASP128      0.2597
    173  O          7.6980   27.8030   18.0350 O.2   128  ASP128     -0.2718
    174  CB        10.8560   27.3490   17.0630 C.3   128  ASP128      0.1424
    175  CG        11.4580   27.4240   15.6770 C.2   128  ASP128      0.3668
    176  OD1       12.5250   26.8150   15.4700 O.co2 128  ASP128     -0.2456
    177  OD2       10.8560   28.0790   14.7920 O.co2 128  ASP128     -0.2456
    178  N          9.2950   27.9300   19.6150 N.am  129  ILE129     -0.1980
    179  CA         8.4040   27.5120   20.6840 C.3   129  ILE129      0.1595
    180  C          7.3020   28.5380   20.8910 C.2   129  ILE129      0.2287
    181  O          6.1400   28.1790   21.0660 O.2   129  ILE129     -0.2864
    182  CB         9.1790   27.2940   22.0000 C.3   129  ILE129      0.0276
    183  CG1       10.1750   26.1440   21.8220 C.3   129  ILE129      0.0022
    184  CG2        8.2040   27.0270   23.1410 C.3   129  ILE129      0.0022
    185  CD1       11.1240   25.9400   22.9900 C.3   129  ILE129      0.0001
    186  N          4.7820   27.9140   18.3810 N.3   132  ASP132     -0.1239
    187  CA         4.0650   26.6720   18.6550 C.3   132  ASP132      0.1674
    188  C          2.9130   26.9790   19.5830 C.2   132  ASP132      0.2266
    189  O          1.7920   26.4870   19.4040 O.2   132  ASP132     -0.2867
    190  CB         4.9900   25.6650   19.3360 C.3   132  ASP132      0.1410
    191  CG         6.0550   25.1190   18.4130 C.2   132  ASP132      0.3668
    192  OD1        7.0690   24.5960   18.9180 O.co2 132  ASP132     -0.2456
    193  OD2        5.8740   25.1950   17.1800 O.co2 132  ASP132     -0.2456
@<TRIPOS>BOND
     1   148   147    2
     2   141   139    1
     3   146   147    1
     4   146   143    1
     5   147   149   am
     6   118   115    1
     7   118   119    1
     8   142   143    1
     9   142   136   am
    10   139   140    1
    11   139   138    1
    12   115   116    1
    13   115   114    1
    14   143   144    1
    15   128   127    2
    16   135   138    1
    17   135   136    1
    18   135   134    1
    19   116   117    2
    20   120   119    1
    21   120   121    1
    22   136   137    2
    23   150   144   am
    24   150   151    1
    25   127   134   am
    26   127   126    1
    27   153   152    2
    28   144   145    2
    29   177   175   ar
    30   125   126    1
    31   152   151    1
    32   121   122    2
    33   176   175   ar
    34   126   129    1
    35   124   122    1
    36   151   154    1
    37   175   174    1
    38   122   123    1
    39   129   130    1
    40   154   155    1
    41   174   171    1
    42   193   191   ar
    43   171   170    1
    44   171   172    1
    45    53    52    2
    46   130   131    1
    47    50    51    1
    48   173   172    2
    49   155   157   ar
    50   155   156   ar
    51   157   159   ar
    52   172   178   am
    53   186   187    1
    54   191   192   ar
    55   191   190    1
    56   132   131   ar
    57    54    56    1
    58    54    51    1
    59    54    55    1
    60    52    51    1
    61   187   190    1
    62   187   188    1
    63   162   163    1
    64   131   133   ar
    65   156   158   ar
    66   163   164    1
    67   163   166    1
    68   189   188    2
    69   159   160   ar
    70   178   179    1
    71   168   167    1
    72   165   164    2
    73   166   167    1
    74   158   160   ar
    75   160   161    1
    76   179   180    1
    77   179   182    1
    78   167   169    1
    79   180   181    2
    80   183   182    1
    81   183   185    1
    82    69    68    1
    83   182   184    1
    84    62    61    1
    85    65    68    1
    86    65    66    1
    87    65    64    1
    88    66    67    2
    89    61    58    1
    90    61    63    1
    91    75    74    1
    92    75    76    1
    93    74    71    1
    94    71    70    1
    95    71    72    1
    96    73    72    2
    97    58    59    1
    98    58    57    1
    99    70    76    1
   100    72    77   am
   101    59    60    2
   102    92    91    2
   103    94    93    1
   104    89    90    1
   105    77    78    1
   106    91    90    1
   107    93    90    1
   108    78    79    1
   109    78    81    1
   110    79    80    2
   111   102   101   ar
   112    25    24    1
   113    98    97    2
   114    26    24    1
   115    32    34    1
   116    32    31    1
   117    95    96    1
   118    33    31    1
   119    24    23    2
   120    86    84   ar
   121    86    87   ar
   122    84    82   ar
   123    99   100    1
   124    99    96    1
   125    31    28    1
   126   111   109   ar
   127   111   113   ar
   128   101   100    1
   129   101   103   ar
   130    88    87    1
   131    97    96    1
   132    87    85   ar
   133    81    82    1
   134    82    83   ar
   135   108   109    1
   136   108   105    1
   137   107   106    2
   138   109   110   ar
   139    23    22    1
   140    85    83   ar
   141   113   112   ar
   142    41    39    1
   143   104   105    1
   144   105   106    1
   145    22    21    1
   146    28    27    1
   147    28    29    1
   148    30    29    2
   149   110   112   ar
   150    39    40    1
   151    39    36    1
   152    20    21    1
   153    20    17    1
   154    19    18    2
   155    49    47   am
   156    17    18    1
   157    17    16    1
   158    36    35    1
   159    36    37    1
   160    13    11   ar
   161    13    15   ar
   162    11    10   ar
   163    15    14   ar
   164    10     9    1
   165    10    12   ar
   166    47    48    2
   167    47    46    1
   168    37    38    2
   169     9     6    1
   170    43    46    1
   171    43    42    1
   172    43    44    1
   173    14    12   ar
   174    44    45    2
   175     8     7    2
   176     5     6    1
   177     5     3   am
   178     6     7    1
   179     2     3    1
   180     2     1    1
   181     3     4    2
