@<TRIPOS>MOLECULE
tmp/1n0hB00.pdb
 80 75 0 0 0
SMALL
GASTEIGER

@<TRIPOS>ATOM
      1  N         -1.2040  100.9260   49.6690 N.3    33  GLY33      -0.1210
      2  CA        -1.7480  101.6750   50.7850 C.3    33  GLY33       0.1956
      3  C         -3.2450  101.4460   50.8150 C.2    33  GLY33       0.2612
      4  O         -3.8300  101.0600   49.8040 O.2    33  GLY33      -0.2717
      5  N         -3.8680  101.6860   51.9640 N.am   34  GLY34      -0.1942
      6  CA        -5.2970  101.4710   52.0920 C.3    34  GLY34       0.2014
      7  C         -6.1650  102.0490   50.9910 C.2    34  GLY34       0.2638
      8  O         -6.9430  101.3320   50.3650 O.2    34  GLY34      -0.2714
      9  N         -6.0250  103.3460   50.7460 N.am   35  ALA35      -0.1977
     10  CA        -6.8240  104.0310   49.7380 C.3    35  ALA35       0.1597
     11  C         -6.7120  103.4770   48.3270 C.2    35  ALA35       0.2287
     12  O         -7.6770  103.5150   47.5680 O.2    35  ALA35      -0.2864
     13  CB        -6.4810  105.5120   49.7330 C.3    35  ALA35       0.0319
     14  N         -5.8970  100.2750   47.6350 N.3    37  LEU37      -0.1245
     15  CA        -6.0460   98.8230   47.6410 C.3    37  LEU37       0.1561
     16  C         -6.9390   98.2270   46.5520 C.2    37  LEU37       0.2260
     17  O         -6.6500   97.1480   46.0360 O.2    37  LEU37      -0.2867
     18  CB        -6.5120   98.3400   49.0150 C.3    37  LEU37       0.0270
     19  CG        -5.4360   98.4060   50.1070 C.3    37  LEU37       0.0019
     20  CD1       -5.8990   97.6230   51.3180 C.3    37  LEU37       0.0001
     21  CD2       -4.1160   97.8310   49.5930 C.3    37  LEU37       0.0001
     22  N         -2.9240  107.2210   49.0240 N.3    81  SER81      -0.1217
     23  CA        -3.2230  108.5940   49.3880 C.3    81  SER81       0.1889
     24  C         -2.3070  109.1460   50.4780 C.2    81  SER81       0.2288
     25  O         -1.3610  108.4910   50.9130 O.2    81  SER81      -0.2866
     26  CB        -4.6730  108.6990   49.8570 C.3    81  SER81       0.2089
     27  OG        -4.8520  107.9870   51.0620 O.3    81  SER81      -0.2183
     28  N         -8.9610  109.0940   49.3950 N.3   109  VAL109     -0.1231
     29  CA       -10.0280  108.6030   50.2510 C.3   109  VAL109      0.1678
     30  C        -11.3190  108.6500   49.4450 C.2   109  VAL109      0.2434
     31  O        -11.3810  109.2980   48.4020 O.2   109  VAL109     -0.2733
     32  CB       -10.1720  109.4690   51.5150 C.3   109  VAL109      0.0265
     33  CG1       -8.8550  109.4450   52.2910 C.3   109  VAL109      0.0020
     34  CG2      -10.5740  110.9070   51.1390 C.3   109  VAL109      0.0020
     35  N        -12.3650  107.9560   49.9120 N.am  110  PRO110     -0.2729
     36  CA       -13.6500  107.9370   49.2070 C.3   110  PRO110      0.1401
     37  C        -14.1760  109.3500   48.9950 C.2   110  PRO110      0.2269
     38  O        -14.0560  110.2000   49.8770 O.2   110  PRO110     -0.2865
     39  CB       -14.5380  107.1310   50.1430 C.3   110  PRO110      0.0296
     40  CG       -13.5690  106.1950   50.7870 C.3   110  PRO110      0.0237
     41  CD       -12.4210  107.1120   51.1150 C.3   110  PRO110      0.0939
     42  N        -15.7000  111.1280   51.6870 N.3   113  ALA113     -0.1245
     43  CA       -14.9230  111.5260   52.8540 C.3   113  ALA113      0.1562
     44  C        -13.9980  112.6930   52.5320 C.2   113  ALA113      0.2260
     45  O        -13.4020  113.2940   53.4330 O.2   113  ALA113     -0.2867
     46  CB       -14.1160  110.3510   53.3710 C.3   113  ALA113      0.0290
     47  N        -10.2290  113.6660   56.4850 N.3   118  ALA118     -0.1231
     48  CA       -10.2530  112.2200   56.6310 C.3   118  ALA118      0.1694
     49  C         -8.8740  111.6090   56.8080 C.2   118  ALA118      0.2592
     50  O         -7.8500  112.2450   56.5400 O.2   118  ALA118     -0.2718
     51  CB       -10.9440  111.5940   55.4300 C.3   118  ALA118      0.0304
     52  N         -8.8700  110.3590   57.2630 N.am  119  PHE119     -0.1962
     53  CA        -7.6480  109.6050   57.4900 C.3   119  PHE119      0.1771
     54  C         -6.8560  109.4680   56.1950 C.2   119  PHE119      0.2619
     55  O         -7.3780  109.0070   55.1730 O.2   119  PHE119     -0.2715
     56  CB        -8.0040  108.2260   58.0420 C.3   119  PHE119      0.0574
     57  CG        -6.8280  107.3090   58.1980 C.ar  119  PHE119     -0.0200
     58  CD1       -5.7440  107.6770   58.9860 C.ar  119  PHE119     -0.0042
     59  CD2       -6.8170  106.0620   57.5790 C.ar  119  PHE119     -0.0042
     60  CE1       -4.6670  106.8200   59.1600 C.ar  119  PHE119     -0.0003
     61  CE2       -5.7460  105.1960   57.7450 C.ar  119  PHE119     -0.0003
     62  CZ        -4.6660  105.5760   58.5390 C.ar  119  PHE119     -0.0000
     63  N         -5.5950  109.8790   56.2530 N.am  120  GLN120     -0.1977
     64  CA        -4.6830  109.8350   55.1140 C.3   120  GLN120      0.1601
     65  C         -5.1810  110.6020   53.8930 C.2   120  GLN120      0.2287
     66  O         -4.9480  110.1880   52.7560 O.2   120  GLN120     -0.2864
     67  CB        -4.3680  108.3850   54.7280 C.3   120  GLN120      0.0394
     68  CG        -3.7780  107.5690   55.8670 C.3   120  GLN120      0.0908
     69  CD        -2.8820  106.4340   55.3920 C.2   120  GLN120      0.2608
     70  OE1       -3.2690  105.6250   54.5480 O.2   120  GLN120     -0.2717
     71  NE2       -1.6760  106.3680   55.9410 N.am  120  GLN120     -0.0878
     72  N        -10.9640  105.9040   46.4370 N.3   169  LYS169     -0.1245
     73  CA       -11.2120  104.4990   46.7280 C.3   169  LYS169      0.1561
     74  C        -12.5850  104.0080   46.2810 C.2   169  LYS169      0.2260
     75  O        -12.7040  102.9180   45.7220 O.2   169  LYS169     -0.2867
     76  CB       -11.0460  104.2260   48.2230 C.3   169  LYS169      0.0271
     77  CG       -11.2600  102.7700   48.5830 C.3   169  LYS169      0.0035
     78  CD       -11.0630  102.5160   50.0550 C.3   169  LYS169      0.0206
     79  CE       -11.2810  101.0510   50.3750 C.3   169  LYS169      0.1093
     80  NZ       -11.0890  100.7650   51.8180 N.3   169  LYS169     -0.1314
@<TRIPOS>BOND
     1    75    74    2
     2    17    16    2
     3    74    73    1
     4    72    73    1
     5    16    15    1
     6    73    76    1
     7    12    11    2
     8    14    15    1
     9    15    18    1
    10    76    77    1
    11    11    10    1
    12    31    30    2
    13    77    78    1
    14    37    36    1
    15    37    38    2
    16    18    19    1
    17    22    23    1
    18    36    35    1
    19    36    39    1
    20    23    26    1
    21    23    24    1
    22    28    29    1
    23    30    35   am
    24    30    29    1
    25    21    19    1
    26     1     2    1
    27    13    10    1
    28    10     9    1
    29     4     3    2
    30    26    27    1
    31    35    41    1
    32    78    79    1
    33    19    20    1
    34    39    40    1
    35    29    32    1
    36     8     7    2
    37    79    80    1
    38    24    25    2
    39     9     7   am
    40     2     3    1
    41    40    41    1
    42     3     5   am
    43     7     6    1
    44    34    32    1
    45    32    33    1
    46    42    43    1
    47     5     6    1
    48    44    43    1
    49    44    45    2
    50    66    65    2
    51    43    46    1
    52    65    64    1
    53    70    69    2
    54    67    64    1
    55    67    68    1
    56    64    63    1
    57    55    54    2
    58    69    68    1
    59    69    71   am
    60    51    48    1
    61    54    63   am
    62    54    53    1
    63    47    48    1
    64    50    49    2
    65    48    49    1
    66    49    52   am
    67    52    53    1
    68    53    56    1
    69    59    61   ar
    70    59    57   ar
    71    61    62   ar
    72    56    57    1
    73    57    58   ar
    74    62    60   ar
    75    58    60   ar
