@<TRIPOS>MOLECULE
tmp/1n0sA00.pdb
 150 141 0 0 0
SMALL
GASTEIGER

@<TRIPOS>ATOM
      1  N          4.3940   68.3990   60.8600 N.3    22  TYR22      -0.1241
      2  CA         5.2560   69.1130   59.9370 C.3    22  TYR22       0.1605
      3  C          6.6680   68.5090   59.9950 C.2    22  TYR22       0.2264
      4  O          7.6360   69.0900   60.4760 O.2    22  TYR22      -0.2867
      5  CB         5.1140   70.5860   60.3720 C.3    22  TYR22       0.0534
      6  CG         5.3410   71.6910   59.3380 C.ar   22  TYR22      -0.0201
      7  CD1        5.1000   71.5190   57.9800 C.ar   22  TYR22      -0.0009
      8  CD2        5.8030   72.9310   59.7650 C.ar   22  TYR22      -0.0009
      9  CE1        5.3310   72.5740   57.0790 C.ar   22  TYR22       0.0417
     10  CE2        6.0360   73.9870   58.9010 C.ar   22  TYR22       0.0417
     11  CZ         5.8100   73.8130   57.5570 C.ar   22  TYR22       0.1957
     12  OH         6.0910   74.9090   56.7610 O.3    22  TYR22      -0.2866
     13  N          5.8070   67.3720   46.1100 N.3    28  GLU28      -0.1245
     14  CA         5.0830   68.4830   45.5550 C.3    28  GLU28       0.1567
     15  C          4.3770   67.9460   44.2780 C.2    28  GLU28       0.2260
     16  O          4.9920   67.8070   43.1980 O.2    28  GLU28      -0.2867
     17  CB         6.0140   69.6560   45.2580 C.3    28  GLU28       0.0388
     18  CG         5.2010   70.9130   44.9020 C.3    28  GLU28       0.1160
     19  CD         6.0220   72.1680   44.7360 C.2    28  GLU28       0.3649
     20  OE1        7.1950   72.0050   44.3590 O.co2  28  GLU28      -0.2457
     21  OE2        5.5570   73.3220   44.9390 O.co2  28  GLU28      -0.2457
     22  N          1.5580   72.6900   41.5520 N.3    31  LYS31      -0.1245
     23  CA         1.9910   74.0290   41.9200 C.3    31  LYS31       0.1561
     24  C          1.6630   75.0160   40.8230 C.2    31  LYS31       0.2260
     25  O          1.4180   74.5910   39.7190 O.2    31  LYS31      -0.2867
     26  CB         3.4940   74.1700   42.1120 C.3    31  LYS31       0.0271
     27  CG         4.4110   73.4780   41.0560 C.3    31  LYS31       0.0035
     28  CD         5.8350   73.9740   41.0930 C.3    31  LYS31       0.0206
     29  CE         6.6920   73.3550   39.9530 C.3    31  LYS31       0.1093
     30  NZ         6.5120   71.8420   39.8950 N.3    31  LYS31      -0.1314
     31  N          9.6970   68.2810   49.3190 N.3    45  ALA45      -0.1245
     32  CA        10.1750   69.0710   50.4720 C.3    45  ALA45       0.1562
     33  C         10.5040   68.1340   51.6310 C.2    45  ALA45       0.2260
     34  O          9.8450   67.0980   51.7880 O.2    45  ALA45      -0.2867
     35  CB         9.1450   70.1100   50.9000 C.3    45  ALA45       0.0290
     36  N         11.2250   68.2130   55.9440 N.3    47  TYR47      -0.1241
     37  CA        11.2030   69.0570   57.1330 C.3    47  TYR47       0.1605
     38  C         11.9780   68.5170   58.3370 C.2    47  TYR47       0.2264
     39  O         11.7630   67.3550   58.6720 O.2    47  TYR47      -0.2867
     40  CB         9.7450   69.1590   57.5540 C.3    47  TYR47       0.0534
     41  CG         8.8580   69.8910   56.5540 C.ar   47  TYR47      -0.0201
     42  CD1        7.9390   69.1810   55.7710 C.ar   47  TYR47      -0.0009
     43  CD2        8.9540   71.2630   56.3730 C.ar   47  TYR47      -0.0009
     44  CE1        7.1080   69.8450   54.8460 C.ar   47  TYR47       0.0417
     45  CE2        8.1170   71.9470   55.4440 C.ar   47  TYR47       0.0417
     46  CZ         7.2180   71.2100   54.6840 C.ar   47  TYR47       0.1957
     47  OH         6.3660   71.7910   53.7800 O.3    47  TYR47      -0.2866
     48  N         13.0610   73.9430   56.1800 N.3    56  VAL56      -0.1245
     49  CA        12.2640   73.5210   55.0460 C.3    56  VAL56       0.1561
     50  C         13.3410   73.4110   53.9860 C.2    56  VAL56       0.2260
     51  O         13.9230   74.4480   53.6020 O.2    56  VAL56      -0.2867
     52  CB        11.2740   74.6510   54.6200 C.3    56  VAL56       0.0252
     53  CG1       10.4550   74.2270   53.3740 C.3    56  VAL56       0.0019
     54  CG2       10.3380   75.0630   55.7470 C.3    56  VAL56       0.0019
     55  N         13.9320   72.2510   50.1620 N.3    58  ARG58      -0.1245
     56  CA        13.1470   71.8850   49.0010 C.3    58  ARG58       0.1563
     57  C         14.0780   71.5050   47.8630 C.2    58  ARG58       0.2260
     58  O         15.0390   72.2000   47.6120 O.2    58  ARG58      -0.2867
     59  CB        12.2150   73.0300   48.5240 C.3    58  ARG58       0.0307
     60  CG        11.0290   73.4240   49.4230 C.3    58  ARG58       0.0489
     61  CD        10.4470   74.8780   49.1370 C.3    58  ARG58       0.2205
     62  NE        10.2930   74.8300   47.7090 N.pl3  58  ARG58      -0.0865
     63  CZ        10.5360   75.6430   46.7150 C.cat  58  ARG58       0.5346
     64  NH1       10.9640   76.9050   46.6950 N.pl3  58  ARG58       0.1354
     65  NH2       10.2530   74.9950   45.6050 N.pl3  58  ARG58       0.1354
     66  N         16.6890   74.7110   47.7430 N.3    69  MET69      -0.1245
     67  CA        16.3550   75.9770   48.4060 C.3    69  MET69       0.1570
     68  C         16.0480   75.6000   49.8460 C.2    69  MET69       0.2261
     69  O         15.2330   74.7200   50.0730 O.2    69  MET69      -0.2867
     70  CB        15.1490   76.7280   47.8310 C.3    69  MET69       0.0387
     71  CG        15.0910   78.2420   48.2550 C.3    69  MET69       0.0595
     72  SD        13.9710   78.9920   49.5950 S.3    69  MET69      -0.1393
     73  CE        13.7490   80.7920   49.0250 C.3    69  MET69       0.0692
     74  N          8.0560   82.1280   56.3910 N.3    86  HIS86      -0.1241
     75  CA         9.2310   81.4050   55.8800 C.3    86  HIS86       0.1621
     76  C         10.3360   82.4600   55.8820 C.2    86  HIS86       0.2264
     77  O         10.0990   83.6090   55.4460 O.2    86  HIS86      -0.2867
     78  CB         8.9500   80.9760   54.4430 C.3    86  HIS86       0.0745
     79  CG        10.1080   80.3380   53.7300 C.ar   86  HIS86       0.0817
     80  ND1       11.0020   81.0700   52.9690 N.ar   86  HIS86      -0.2268
     81  CD2       10.4860   79.0400   53.6130 C.ar   86  HIS86       0.1154
     82  CE1       11.8740   80.2460   52.4110 C.ar   86  HIS86       0.1986
     83  NE2       11.5940   79.0150   52.7940 N.ar   86  HIS86      -0.2212
     84  N          8.7200   85.9090   54.4680 N.3    97  THR97      -0.1218
     85  CA         7.4970   85.8800   53.6440 C.3    97  THR97       0.1862
     86  C          6.3970   85.1960   54.4100 C.2    97  THR97       0.2287
     87  O          6.5910   84.0610   54.7910 O.2    97  THR97      -0.2866
     88  CB         7.7170   85.0030   52.3910 C.3    97  THR97       0.1770
     89  OG1        8.8010   85.5390   51.5890 O.3    97  THR97      -0.2211
     90  CG2        6.5290   85.0560   51.4950 C.3    97  THR97       0.0375
     91  N          3.2620   82.9360   54.6400 N.3    99  PHE99      -0.1241
     92  CA         2.4570   82.0880   53.7620 C.3    99  PHE99       0.1605
     93  C          1.2970   81.5050   54.5880 C.2    99  PHE99       0.2264
     94  O          1.2780   81.5890   55.8340 O.2    99  PHE99      -0.2867
     95  CB         3.2970   81.0190   53.0190 C.3    99  PHE99       0.0534
     96  CG         3.8450   79.9350   53.9190 C.ar   99  PHE99      -0.0203
     97  CD1        3.1460   78.7380   54.1240 C.ar   99  PHE99      -0.0042
     98  CD2        5.0420   80.1190   54.5520 C.ar   99  PHE99      -0.0042
     99  CE1        3.6540   77.7330   54.9250 C.ar   99  PHE99      -0.0003
    100  CE2        5.5340   79.1370   55.4010 C.ar   99  PHE99      -0.0003
    101  CZ         4.8520   77.9390   55.5640 C.ar   99  PHE99      -0.0000
    102  N          0.9840   81.7320   48.9500 N.3   114  SER114     -0.1217
    103  CA         1.6180   82.9450   49.3730 C.3   114  SER114      0.1889
    104  C          1.3410   84.0410   48.3490 C.2   114  SER114      0.2288
    105  O          1.1760   83.7770   47.1550 O.2   114  SER114     -0.2866
    106  CB         3.1610   82.8410   49.4880 C.3   114  SER114      0.2089
    107  OG         3.6750   82.4800   48.1940 O.3   114  SER114     -0.2183
    108  N          2.5340   88.2130   47.2380 N.3   116  ARG116     -0.1245
    109  CA         3.3930   89.3700   47.3990 C.3   116  ARG116      0.1563
    110  C          2.9770   90.5020   46.4850 C.2   116  ARG116      0.2260
    111  O          2.6430   90.2260   45.3260 O.2   116  ARG116     -0.2867
    112  CB         4.7950   88.9890   46.8980 C.3   116  ARG116      0.0307
    113  CG         5.7230   88.6830   48.0120 C.3   116  ARG116      0.0489
    114  CD         6.4980   87.4040   47.7970 C.3   116  ARG116      0.2205
    115  NE         7.6550   87.5260   46.9080 N.pl3 116  ARG116     -0.0865
    116  CZ         8.6440   86.6190   46.9140 C.cat 116  ARG116      0.5346
    117  NH1        8.5960   85.5660   47.7530 N.pl3 116  ARG116      0.1354
    118  NH2        9.6740   86.7720   46.0830 N.pl3 116  ARG116      0.1354
    119  N          1.3800   82.3600   44.6400 N.3   127  HIS127     -0.1241
    120  CA         1.8530   81.0010   44.4150 C.3   127  HIS127      0.1621
    121  C          1.0500   79.9740   45.1900 C.2   127  HIS127      0.2264
    122  O          0.7430   80.2510   46.3470 O.2   127  HIS127     -0.2867
    123  CB         3.3460   80.8890   44.7470 C.3   127  HIS127      0.0745
    124  CG         3.9580   79.7300   44.0510 C.ar  127  HIS127      0.0817
    125  ND1        4.5810   78.6890   44.6980 N.ar  127  HIS127     -0.2268
    126  CD2        3.9800   79.4140   42.7410 C.ar  127  HIS127      0.1154
    127  CE1        4.9770   77.7830   43.8190 C.ar  127  HIS127      0.1986
    128  NE2        4.6380   78.2130   42.6150 N.ar  127  HIS127     -0.2212
    129  N          0.8110   75.7480   46.2220 N.3   129  TRP129     -0.1241
    130  CA         1.4820   74.4710   46.1240 C.3   129  TRP129      0.1605
    131  C          0.6940   73.4190   46.8780 C.2   129  TRP129      0.2264
    132  O         -0.0490   73.7210   47.8230 O.2   129  TRP129     -0.2867
    133  CB         2.9500   74.5160   46.5610 C.3   129  TRP129      0.0550
    134  CG         3.1160   74.8970   48.0160 C.ar  129  TRP129      0.0003
    135  CD1        3.1470   74.0480   49.1130 C.ar  129  TRP129      0.0946
    136  CD2        3.2380   76.2220   48.5410 C.ar  129  TRP129      0.0152
    137  NE1        3.2960   74.7760   50.2690 N.ar  129  TRP129     -0.2442
    138  CE2        3.3710   76.1100   49.9570 C.ar  129  TRP129      0.0810
    139  CE3        3.2550   77.4950   47.9680 C.ar  129  TRP129      0.0012
    140  CZ2        3.5240   77.2110   50.7730 C.ar  129  TRP129      0.0191
    141  CZ3        3.3970   78.6040   48.7920 C.ar  129  TRP129      0.0001
    142  CH2        3.5550   78.4540   50.1840 C.ar  129  TRP129      0.0015
    143  N          1.2350   69.6490   48.6010 N.3   131  LEU131     -0.1245
    144  CA         2.2150   68.6580   49.0340 C.3   131  LEU131      0.1561
    145  C          1.4500   67.4300   49.4410 C.2   131  LEU131      0.2260
    146  O          0.3100   67.5350   49.9430 O.2   131  LEU131     -0.2867
    147  CB         3.0260   69.1290   50.2430 C.3   131  LEU131      0.0270
    148  CG         3.7240   70.4660   50.1280 C.3   131  LEU131      0.0019
    149  CD1        4.4800   70.9130   51.4040 C.3   131  LEU131      0.0001
    150  CD2        4.6480   70.4390   48.9220 C.3   131  LEU131      0.0001
@<TRIPOS>BOND
     1    25    24    2
     2    30    29    1
     3    29    28    1
     4    24    23    1
     5    27    28    1
     6    27    26    1
     7    22    23    1
     8    23    26    1
     9   128   126   ar
    10   128   127   ar
    11   126   124   ar
    12    16    15    2
    13   127   125   ar
    14   124   125   ar
    15   124   123    1
    16    15    14    1
    17    20    19   ar
    18   120   119    1
    19   120   123    1
    20   120   121    1
    21    19    18    1
    22    19    21   ar
    23    18    17    1
    24   121   122    2
    25    17    14    1
    26   111   110    2
    27    14    13    1
    28    65    63    1
    29   118   116    1
    30   130   129    1
    31   130   133    1
    32   130   131    1
    33   110   109    1
    34   133   134    1
    35    64    63    1
    36    63    62    2
    37   131   132    2
    38   112   109    1
    39   112   113    1
    40   115   116    2
    41   115   114    1
    42   116   117    1
    43   105   104    2
    44   108   109    1
    45    58    57    2
    46    62    61    1
    47    66    67    1
    48   114   113    1
    49    70    71    1
    50    70    67    1
    51    57    56    1
    52   139   136   ar
    53   139   141   ar
    54   134   136   ar
    55   134   135   ar
    56   107   106    1
    57    71    72    1
    58   104   103    1
    59    67    68    1
    60    59    56    1
    61    59    60    1
    62   136   138   ar
    63   143   144    1
    64   141   142   ar
    65   150   148    1
    66   102   103    1
    67    56    55    1
    68    73    72    1
    69   144   145    1
    70   144   147    1
    71   135   137   ar
    72    61    60    1
    73    31    32    1
    74   103   106    1
    75   145   146    2
    76    68    69    2
    77   138   137   ar
    78   138   140   ar
    79   148   147    1
    80   148   149    1
    81   142   140   ar
    82    32    35    1
    83    32    33    1
    84    90    88    1
    85    89    88    1
    86    33    34    2
    87    88    85    1
    88    82    83   ar
    89    82    80   ar
    90    83    81   ar
    91    80    79   ar
    92    95    92    1
    93    95    96    1
    94    53    52    1
    95    51    50    2
    96    81    79   ar
    97    85    86    1
    98    85    84    1
    99    79    78    1
   100    92    93    1
   101    92    91    1
   102    47    46    1
   103    96    97   ar
   104    96    98   ar
   105    50    49    1
   106    97    99   ar
   107    86    87    2
   108    78    75    1
   109    98   100   ar
   110    93    94    2
   111    52    49    1
   112    52    54    1
   113    46    44   ar
   114    46    45   ar
   115    44    42   ar
   116    99   101   ar
   117    49    48    1
   118   100   101   ar
   119    45    43   ar
   120    77    76    2
   121    42    41   ar
   122    75    76    1
   123    75    74    1
   124    36    37    1
   125    43    41   ar
   126    41    40    1
   127    12    11    1
   128     9    11   ar
   129     9     7   ar
   130    37    40    1
   131    37    38    1
   132    11    10   ar
   133     7     6   ar
   134    38    39    2
   135    10     8   ar
   136     6     8   ar
   137     6     5    1
   138     2     3    1
   139     2     5    1
   140     2     1    1
   141     3     4    2
