@<TRIPOS>MOLECULE
tmp/1n0tC00.pdb
 166 158 0 0 0
SMALL
GASTEIGER

@<TRIPOS>ATOM
      1  N         34.4100   55.4210   -0.9300 N.3     9  GLU9       -0.1245
      2  CA        33.4180   55.5580    0.1260 C.3     9  GLU9        0.1567
      3  C         33.5750   54.3590    1.0560 C.2     9  GLU9        0.2260
      4  O         33.5890   53.2230    0.5920 O.2     9  GLU9       -0.2867
      5  CB        32.0180   55.5410   -0.4990 C.3     9  GLU9        0.0388
      6  CG        30.8940   55.9020    0.4460 C.3     9  GLU9        0.1160
      7  CD        30.6680   57.3960    0.5240 C.2     9  GLU9        0.3649
      8  OE1       30.2450   57.9900   -0.4970 O.co2   9  GLU9       -0.2457
      9  OE2       30.9140   57.9730    1.6010 O.co2   9  GLU9       -0.2457
     10  N         33.0500   50.5830    1.1880 N.3    12  TYR12      -0.1241
     11  CA        32.9070   50.0460   -0.1650 C.3    12  TYR12       0.1605
     12  C         34.1940   50.0190   -0.9650 C.2    12  TYR12       0.2264
     13  O         34.5840   48.9830   -1.5040 O.2    12  TYR12      -0.2867
     14  CB        31.8600   50.8540   -0.9240 C.3    12  TYR12       0.0534
     15  CG        30.5430   50.9110   -0.1960 C.ar   12  TYR12      -0.0201
     16  CD1       29.6190   49.8790   -0.3080 C.ar   12  TYR12      -0.0009
     17  CD2       30.2470   51.9750    0.6530 C.ar   12  TYR12      -0.0009
     18  CE1       28.4260   49.9030    0.4140 C.ar   12  TYR12       0.0417
     19  CE2       29.0640   52.0100    1.3760 C.ar   12  TYR12       0.0417
     20  CZ        28.1590   50.9710    1.2530 C.ar   12  TYR12       0.1957
     21  OH        26.9880   50.9960    1.9720 O.3    12  TYR12      -0.2866
     22  N         27.2370   60.4810   -7.3330 N.3    57  TYR57      -0.1241
     23  CA        26.6550   59.1810   -7.6310 C.3    57  TYR57       0.1605
     24  C         25.8720   59.2410   -8.9420 C.2    57  TYR57       0.2264
     25  O         26.1090   58.4430   -9.8490 O.2    57  TYR57      -0.2867
     26  CB        25.7640   58.7110   -6.4750 C.3    57  TYR57       0.0534
     27  CG        26.5710   58.1520   -5.3160 C.ar   57  TYR57      -0.0201
     28  CD1       27.2380   58.9970   -4.4300 C.ar   57  TYR57      -0.0009
     29  CD2       26.7340   56.7740   -5.1590 C.ar   57  TYR57      -0.0009
     30  CE1       28.0580   58.4820   -3.4170 C.ar   57  TYR57       0.0417
     31  CE2       27.5540   56.2490   -4.1520 C.ar   57  TYR57       0.0417
     32  CZ        28.2130   57.1060   -3.2910 C.ar   57  TYR57       0.1957
     33  OH        29.0450   56.5860   -2.3230 O.3    57  TYR57      -0.2866
     34  N         27.7880   51.7040   -4.1810 N.3    85  PRO85      -0.2102
     35  CA        26.5060   51.7100   -3.4730 C.3    85  PRO85       0.1504
     36  C         25.5710   52.7080   -4.1560 C.2    85  PRO85       0.2576
     37  O         25.2330   53.7550   -3.6040 O.2    85  PRO85      -0.2718
     38  CB        26.9030   52.1260   -2.0620 C.3    85  PRO85       0.0282
     39  CG        28.0500   53.0430   -2.3060 C.3    85  PRO85       0.0208
     40  CD        28.8470   52.3050   -3.3540 C.3    85  PRO85       0.0893
     41  N         25.1720   52.3630   -5.3760 N.am   86  LEU86      -0.1966
     42  CA        24.3040   53.1950   -6.2030 C.3    86  LEU86       0.1728
     43  C         22.8350   52.7560   -6.1120 C.2    86  LEU86       0.2616
     44  O         22.4620   51.6980   -6.6240 O.2    86  LEU86      -0.2715
     45  CB        24.8050   53.1080   -7.6460 C.3    86  LEU86       0.0311
     46  CG        24.2140   53.9970   -8.7360 C.3    86  LEU86       0.0022
     47  CD1       24.4560   55.4660   -8.4170 C.3    86  LEU86       0.0001
     48  CD2       24.8600   53.6160  -10.0640 C.3    86  LEU86       0.0001
     49  N         22.0020   53.5800   -5.4840 N.am   87  THR87      -0.1951
     50  CA        20.5890   53.2520   -5.3040 C.3    87  THR87       0.1897
     51  C         19.8030   53.1130   -6.6030 C.2    87  THR87       0.2313
     52  O         19.9170   53.9360   -7.5050 O.2    87  THR87      -0.2863
     53  CB        19.8620   54.3090   -4.4570 C.3    87  THR87       0.1794
     54  OG1       20.5740   54.5190   -3.2360 O.3    87  THR87      -0.2208
     55  CG2       18.4370   53.8440   -4.1290 C.3    87  THR87       0.0378
     56  N         16.8570   57.0560  -12.5620 N.3    92  ARG92      -0.1245
     57  CA        18.0990   56.4650  -13.0490 C.3    92  ARG92       0.1563
     58  C         17.8140   55.2780  -13.9680 C.2    92  ARG92       0.2260
     59  O         18.4700   55.1050  -14.9880 O.2    92  ARG92      -0.2867
     60  CB        18.9640   56.0170  -11.8680 C.3    92  ARG92       0.0307
     61  CG        19.5120   57.1640  -11.0380 C.3    92  ARG92       0.0489
     62  CD        20.2090   56.6500   -9.7930 C.3    92  ARG92       0.2205
     63  NE        20.9230   57.7040   -9.0810 N.pl3  92  ARG92      -0.0865
     64  CZ        21.4850   57.5330   -7.8880 C.cat  92  ARG92       0.5346
     65  NH1       21.4010   56.3550   -7.2850 N.pl3  92  ARG92       0.1354
     66  NH2       22.1450   58.5290   -7.3050 N.pl3  92  ARG92       0.1354
     67  N         20.5720   65.6860    4.3290 N.3   134  LEU134     -0.1245
     68  CA        21.4460   66.3970    3.3990 C.3   134  LEU134      0.1561
     69  C         20.6020   67.4900    2.7360 C.2   134  LEU134      0.2260
     70  O         19.4020   67.3070    2.5270 O.2   134  LEU134     -0.2867
     71  CB        21.9740   65.4320    2.3400 C.3   134  LEU134      0.0270
     72  CG        23.1330   64.5300    2.7580 C.3   134  LEU134      0.0019
     73  CD1       23.2650   63.3890    1.7830 C.3   134  LEU134      0.0001
     74  CD2       24.4220   65.3500    2.8120 C.3   134  LEU134      0.0001
     75  N         20.2350   68.1450   -0.0550 N.3   136  SER136     -0.1202
     76  CA        19.7540   67.6830   -1.3540 C.3   136  SER136      0.2020
     77  C         19.8510   66.1650   -1.4220 C.2   136  SER136      0.2619
     78  O         20.5800   65.5520   -0.6500 O.2   136  SER136     -0.2717
     79  CB        20.5690   68.3150   -2.4890 C.3   136  SER136      0.2103
     80  OG        21.9360   67.9520   -2.4150 O.3   136  SER136     -0.2182
     81  N         19.1060   65.5550   -2.3360 N.am  137  GLY137     -0.1942
     82  CA        19.1480   64.1110   -2.4560 C.3   137  GLY137      0.2014
     83  C         17.7880   63.4680   -2.2870 C.2   137  GLY137      0.2640
     84  O         16.7910   64.1530   -2.0720 O.2   137  GLY137     -0.2714
     85  N         17.7520   62.1430   -2.3700 N.am  138  SER138     -0.1935
     86  CA        16.5070   61.4000   -2.2500 C.3   138  SER138      0.2055
     87  C         15.9070   61.3780   -0.8400 C.2   138  SER138      0.2644
     88  O         14.6920   61.2510   -0.6910 O.2   138  SER138     -0.2714
     89  CB        16.7140   59.9700   -2.7470 C.3   138  SER138      0.2130
     90  OG        17.7460   59.3380   -2.0120 O.3   138  SER138     -0.2179
     91  N         16.7350   61.4850    0.1970 N.am  139  THR139     -0.1936
     92  CA        16.1780   61.4860    1.5450 C.3   139  THR139      0.2028
     93  C         15.3690   62.7650    1.7110 C.2   139  THR139      0.2642
     94  O         14.2120   62.7330    2.1180 O.2   139  THR139     -0.2714
     95  CB        17.2760   61.4180    2.6230 C.3   139  THR139      0.1808
     96  OG1       17.9000   60.1300    2.5810 O.3   139  THR139     -0.2208
     97  CG2       16.6810   61.6270    4.0160 C.3   139  THR139      0.0379
     98  N         15.9740   63.8920    1.3660 N.am  140  LYS140     -0.1977
     99  CA        15.2800   65.1580    1.4750 C.3   140  LYS140      0.1596
    100  C         13.9920   65.1020    0.6650 C.2   140  LYS140      0.2287
    101  O         12.9370   65.5060    1.1430 O.2   140  LYS140     -0.2864
    102  CB        16.1670   66.2980    0.9760 C.3   140  LYS140      0.0298
    103  CG        15.5050   67.6660    1.0390 C.3   140  LYS140      0.0038
    104  CD        16.5090   68.7840    0.8510 C.3   140  LYS140      0.0206
    105  CE        15.8370   70.1440    0.9590 C.3   140  LYS140      0.1093
    106  NZ        16.8230   71.2580    0.9380 N.3   140  LYS140     -0.1314
    107  N         27.6250   64.0110    4.1560 N.3   170  THR170     -0.1218
    108  CA        27.3920   62.9460    5.1200 C.3   170  THR170      0.1862
    109  C         28.2860   63.1350    6.3350 C.2   170  THR170      0.2287
    110  O         27.8210   63.0790    7.4740 O.2   170  THR170     -0.2866
    111  CB        27.6940   61.5750    4.5050 C.3   170  THR170      0.1770
    112  OG1       26.8130   61.3480    3.3960 O.3   170  THR170     -0.2211
    113  CG2       27.5000   60.4710    5.5380 C.3   170  THR170      0.0375
    114  N         19.6430   59.3260    7.4630 N.3   188  LEU188     -0.1231
    115  CA        20.5120   58.9100    6.3620 C.3   188  LEU188      0.1693
    116  C         20.2740   57.4610    5.9530 C.2   188  LEU188      0.2591
    117  O         19.4820   56.7540    6.5780 O.2   188  LEU188     -0.2718
    118  CB        21.9790   59.0660    6.7770 C.3   188  LEU188      0.0284
    119  CG        22.4950   57.9990    7.7510 C.3   188  LEU188      0.0019
    120  CD1       23.9950   58.1800    7.9380 C.3   188  LEU188      0.0001
    121  CD2       21.7540   58.0930    9.1050 C.3   188  LEU188      0.0001
    122  N         20.9690   57.0160    4.9060 N.am  189  GLU189     -0.1979
    123  CA        20.8190   55.6380    4.4450 C.3   189  GLU189      0.1602
    124  C         21.2570   54.6850    5.5570 C.2   189  GLU189      0.2287
    125  O         22.2920   54.8890    6.1980 O.2   189  GLU189     -0.2864
    126  CB        21.6230   55.4230    3.1560 C.3   189  GLU189      0.0415
    127  CG        21.1170   56.3280    2.0290 C.3   189  GLU189      0.1163
    128  CD        21.7040   56.0300    0.6560 C.2   189  GLU189      0.3649
    129  OE1       22.5530   55.1210    0.5170 O.co2 189  GLU189     -0.2457
    130  OE2       21.3030   56.7270   -0.2990 O.co2 189  GLU189     -0.2457
    131  N         22.5910   51.7870    5.6190 N.3   191  THR191     -0.1203
    132  CA        23.9000   51.1650    5.4700 C.3   191  THR191      0.1994
    133  C         25.0200   51.9720    6.1240 C.2   191  THR191      0.2617
    134  O         25.8900   51.4060    6.7760 O.2   191  THR191     -0.2717
    135  CB        24.2290   50.9470    3.9890 C.3   191  THR191      0.1784
    136  OG1       24.1490   52.1980    3.2970 O.3   191  THR191     -0.2211
    137  CG2       23.2430   49.9660    3.3690 C.3   191  THR191      0.0376
    138  N         24.9950   53.2880    5.9450 N.am  192  MET192     -0.1979
    139  CA        26.0030   54.1700    6.5300 C.3   192  MET192      0.1605
    140  C         25.8010   54.2740    8.0400 C.2   192  MET192      0.2287
    141  O         26.7670   54.3410    8.8030 O.2   192  MET192     -0.2864
    142  CB        25.9100   55.5640    5.8980 C.3   192  MET192      0.0413
    143  CG        26.8810   56.6010    6.4650 C.3   192  MET192      0.0598
    144  SD        28.6290   56.2130    6.1720 S.3   192  MET192     -0.1393
    145  CE        28.7520   56.6230    4.4280 C.3   192  MET192      0.0692
    146  N         14.7200   50.2320   -0.1970 N.3   214  LYS214     -0.1245
    147  CA        15.3160   50.3260   -1.5160 C.3   214  LYS214      0.1561
    148  C         16.5880   49.4980   -1.5710 C.2   214  LYS214      0.2260
    149  O         16.9210   48.7910   -0.6100 O.2   214  LYS214     -0.2867
    150  CB        15.5860   51.7910   -1.8790 C.3   214  LYS214      0.0271
    151  CG        16.1700   52.6250   -0.7680 C.3   214  LYS214      0.0035
    152  CD        15.8270   54.0910   -0.9790 C.3   214  LYS214      0.0206
    153  CE        16.2430   54.9510    0.1960 C.3   214  LYS214      0.1093
    154  NZ        15.6880   56.3260    0.0510 N.3   214  LYS214     -0.1314
    155  N         20.7810   48.8890   -3.5800 N.3   216  TYR216     -0.1241
    156  CA        21.8810   49.3000   -4.4340 C.3   216  TYR216      0.1605
    157  C         21.9590   48.2580   -5.5420 C.2   216  TYR216      0.2264
    158  O         21.7030   47.0760   -5.3120 O.2   216  TYR216     -0.2867
    159  CB        23.2150   49.2910   -3.6840 C.3   216  TYR216      0.0534
    160  CG        23.3140   50.2140   -2.4920 C.ar  216  TYR216     -0.0201
    161  CD1       22.6910   51.4610   -2.4890 C.ar  216  TYR216     -0.0009
    162  CD2       24.0670   49.8500   -1.3750 C.ar  216  TYR216     -0.0009
    163  CE1       22.8140   52.3290   -1.3990 C.ar  216  TYR216      0.0417
    164  CE2       24.1980   50.7060   -0.2850 C.ar  216  TYR216      0.0417
    165  CZ        23.5670   51.9430   -0.3030 C.ar  216  TYR216      0.1957
    166  OH        23.6770   52.7730    0.7850 O.3   216  TYR216     -0.2866
@<TRIPOS>BOND
     1    59    58    2
     2    58    57    1
     3    57    56    1
     4    57    60    1
     5    60    61    1
     6    61    62    1
     7    48    46    1
     8    25    24    2
     9    62    63    1
    10    63    64    2
    11    24    23    1
    12    46    47    1
    13    46    45    1
    14    64    66    1
    15    64    65    1
    16    45    42    1
    17    23    22    1
    18    23    26    1
    19    52    51    2
    20    44    43    2
    21    51    50    1
    22    26    27    1
    23    42    43    1
    24    42    41    1
    25    43    49   am
    26   157   158    2
    27   157   156    1
    28    49    50    1
    29    41    36   am
    30    27    29   ar
    31    27    28   ar
    32    50    53    1
    33    29    31   ar
    34    53    55    1
    35    53    54    1
    36   156   159    1
    37   156   155    1
    38    28    30   ar
    39    34    35    1
    40    34    40    1
    41    36    37    2
    42    36    35    1
    43    31    32   ar
    44   159   160    1
    45    35    38    1
    46    30    32   ar
    47    40    39    1
    48    32    33    1
    49    89    86    1
    50    89    90    1
    51   160   161   ar
    52   160   162   ar
    53   161   163   ar
    54    79    80    1
    55    79    76    1
    56    82    81    1
    57    82    83    1
    58    85    83   am
    59    85    86    1
    60    81    77   am
    61    39    38    1
    62    83    84    2
    63    86    87    1
    64   150   147    1
    65   150   151    1
    66   148   147    1
    67   148   149    2
    68   147   146    1
    69    13    12    2
    70    77    76    1
    71    77    78    2
    72   163   165   ar
    73   162   164   ar
    74    76    75    1
    75   152   151    1
    76   152   153    1
    77    12    11    1
    78     1     2    1
    79    14    15    1
    80    14    11    1
    81    87    88    2
    82    87    91   am
    83     5     2    1
    84     5     6    1
    85     8     7   ar
    86    16    15   ar
    87    16    18   ar
    88   165   164   ar
    89   165   166    1
    90   130   128   ar
    91    15    17   ar
    92    11    10    1
    93   154   153    1
    94     2     3    1
    95    91    92    1
    96    18    20   ar
    97     6     7    1
    98   129   128   ar
    99     7     9   ar
   100     4     3    2
   101    17    19   ar
   102   128   127    1
   103   100   101    2
   104   100    99    1
   105   104   105    1
   106   104   103    1
   107   106   105    1
   108   102   103    1
   109   102    99    1
   110    20    19   ar
   111    20    21    1
   112    98    99    1
   113    98    93   am
   114    92    93    1
   115    92    95    1
   116    93    94    2
   117    73    72    1
   118   127   126    1
   119    71    72    1
   120    71    68    1
   121    70    69    2
   122    96    95    1
   123    95    97    1
   124    69    68    1
   125    72    74    1
   126   126   123    1
   127   136   135    1
   128   137   135    1
   129   112   111    1
   130    68    67    1
   131   135   132    1
   132   107   108    1
   133   145   144    1
   134   123   122    1
   135   123   124    1
   136   111   108    1
   137   111   113    1
   138   122   116   am
   139   108   109    1
   140   132   131    1
   141   132   133    1
   142   124   125    2
   143   142   143    1
   144   142   139    1
   145   138   133   am
   146   138   139    1
   147   116   115    1
   148   116   117    2
   149   133   134    2
   150   144   143    1
   151   109   110    2
   152   115   118    1
   153   115   114    1
   154   139   140    1
   155   118   119    1
   156   119   120    1
   157   119   121    1
   158   140   141    2
