@<TRIPOS>MOLECULE
tmp/1n0uA00.pdb
 186 182 0 0 0
SMALL
GASTEIGER

@<TRIPOS>ATOM
      1  N         66.3640   48.5550    9.0180 N.3   467  PRO467     -0.2116
      2  CA        67.3510   49.5630    8.6050 C.3   467  PRO467      0.1372
      3  C         68.7420   49.2180    9.1140 C.2   467  PRO467      0.2244
      4  O         69.3280   49.9900    9.8720 O.2   467  PRO467     -0.2868
      5  CB        66.8460   50.8450    9.2630 C.3   467  PRO467      0.0268
      6  CG        65.4100   50.5540    9.5970 C.3   467  PRO467      0.0207
      7  CD        65.4370   49.1190   10.0070 C.3   467  PRO467      0.0892
      8  N         73.7460   51.4310    7.6290 N.3   470  GLN470     -0.1245
      9  CA        73.7610   52.8310    8.0280 C.3   470  GLN470      0.1566
     10  C         75.0620   53.5650    7.7470 C.2   470  GLN470      0.2260
     11  O         76.1510   53.0070    7.8910 O.2   470  GLN470     -0.2867
     12  CB        73.4600   52.9520    9.5310 C.3   470  GLN470      0.0367
     13  CG        72.5550   51.8580   10.1320 C.3   470  GLN470      0.0905
     14  CD        71.9490   52.2660   11.4820 C.2   470  GLN470      0.2608
     15  OE1       72.5910   52.9380   12.2740 O.2   470  GLN470     -0.2717
     16  NE2       70.7100   51.8480   11.7380 N.am  470  GLN470     -0.0878
     17  N         65.4690   55.2150    7.5850 N.3   499  LEU499     -0.1245
     18  CA        65.5840   55.7350    8.9450 C.3   499  LEU499      0.1561
     19  C         66.6970   56.7720    9.0340 C.2   499  LEU499      0.2260
     20  O         67.7810   56.5790    8.4930 O.2   499  LEU499     -0.2867
     21  CB        65.8570   54.5910    9.9240 C.3   499  LEU499      0.0270
     22  CG        66.2850   54.9410   11.3520 C.3   499  LEU499      0.0019
     23  CD1       65.1670   55.6510   12.0950 C.3   499  LEU499      0.0001
     24  CD2       66.6590   53.6620   12.0680 C.3   499  LEU499      0.0001
     25  N         68.5060   59.5840   11.9400 N.3   501  TYR501     -0.1227
     26  CA        68.5670   60.0060   13.3370 C.3   501  TYR501      0.1736
     27  C         69.9500   60.5840   13.6400 C.2   501  TYR501      0.2595
     28  O         70.8790   60.4160   12.8520 O.2   501  TYR501     -0.2718
     29  CB        68.2610   58.8080   14.2580 C.3   501  TYR501      0.0548
     30  CG        69.2940   57.6860   14.2290 C.ar  501  TYR501     -0.0200
     31  CD1       70.3970   57.7020   15.0820 C.ar  501  TYR501     -0.0009
     32  CD2       69.1790   56.6200   13.3300 C.ar  501  TYR501     -0.0009
     33  CE1       71.3670   56.6820   15.0450 C.ar  501  TYR501      0.0417
     34  CE2       70.1450   55.5930   13.2780 C.ar  501  TYR501      0.0417
     35  CZ        71.2340   55.6380   14.1400 C.ar  501  TYR501      0.1957
     36  OH        72.1900   54.6450   14.0990 O.3   501  TYR501     -0.2866
     37  N         70.0710   61.2800   14.7670 N.am  502  MET502     -0.1965
     38  CA        71.3330   61.8830   15.1840 C.3   502  MET502      0.1736
     39  C         72.0910   60.8740   16.0430 C.2   502  MET502      0.2617
     40  O         71.5350   60.3190   16.9840 O.2   502  MET502     -0.2715
     41  CB        71.0660   63.1470   15.9970 C.3   502  MET502      0.0427
     42  CG        72.2750   64.0540   16.1590 C.3   502  MET502      0.0599
     43  SD        72.4440   65.2410   14.8000 S.3   502  MET502     -0.1393
     44  CE        73.9540   64.7630   14.1840 C.3   502  MET502      0.0692
     45  N         73.3610   60.6420   15.7300 N.am  503  SER503     -0.1936
     46  CA        74.1350   59.6700   16.4900 C.3   503  SER503      0.2055
     47  C         74.6580   60.2880   17.7760 C.2   503  SER503      0.2643
     48  O         74.6160   61.5040   17.9540 O.2   503  SER503     -0.2714
     49  CB        75.3170   59.1630   15.6650 C.3   503  SER503      0.2130
     50  OG        76.3560   60.1260   15.6510 O.3   503  SER503     -0.2179
     51  N         75.1530   59.4330   18.6610 N.am  504  GLU504     -0.1963
     52  CA        75.7220   59.8530   19.9330 C.3   504  GLU504      0.1733
     53  C         76.9410   60.7470   19.6770 C.2   504  GLU504      0.2617
     54  O         77.3410   61.5210   20.5400 O.2   504  GLU504     -0.2715
     55  CB        76.1620   58.6150   20.7240 C.3   504  GLU504      0.0429
     56  CG        76.7750   58.9050   22.0980 C.3   504  GLU504      0.1163
     57  CD        75.7230   59.2280   23.1320 C.2   504  GLU504      0.3649
     58  OE1       74.5520   59.3780   22.7340 O.co2 504  GLU504     -0.2457
     59  OE2       76.0600   59.3290   24.3330 O.co2 504  GLU504     -0.2457
     60  N         77.5400   60.6320   18.4910 N.am  505  SER505     -0.1950
     61  CA        78.7170   61.4410   18.1800 C.3   505  SER505      0.1924
     62  C         78.3620   62.6670   17.3370 C.2   505  SER505      0.2314
     63  O         79.2310   63.2760   16.7210 O.2   505  SER505     -0.2863
     64  CB        79.7850   60.6000   17.4580 C.3   505  SER505      0.2116
     65  OG        80.1440   59.4540   18.2090 O.3   505  SER505     -0.2180
     66  N         72.6580   60.3290   10.7000 N.3   509  ILE509     -0.1245
     67  CA        72.7210   58.9500   10.2330 C.3   509  ILE509      0.1561
     68  C         71.5440   58.6120    9.3380 C.2   509  ILE509      0.2260
     69  O         70.3990   58.8960    9.6770 O.2   509  ILE509     -0.2867
     70  CB        72.7050   57.9280   11.4140 C.3   509  ILE509      0.0252
     71  CG1       73.8910   58.1610   12.3540 C.3   509  ILE509      0.0019
     72  CG2       72.7530   56.5000   10.8620 C.3   509  ILE509      0.0019
     73  CD1       75.2630   58.0900   11.6650 C.3   509  ILE509      0.0001
     74  N         79.8180   55.6670    9.9430 N.3   539  PRO539     -0.2102
     75  CA        79.5160   56.3760   11.1860 C.3   539  PRO539      0.1504
     76  C         80.5700   56.2380   12.2780 C.2   539  PRO539      0.2576
     77  O         81.1200   55.1610   12.5030 O.2   539  PRO539     -0.2718
     78  CB        78.1630   55.7960   11.6020 C.3   539  PRO539      0.0282
     79  CG        78.1660   54.4330   10.9960 C.3   539  PRO539      0.0208
     80  CD        78.7820   54.6680    9.6370 C.3   539  PRO539      0.0893
     81  N         80.8640   57.3620   12.9260 N.am  540  VAL540     -0.1966
     82  CA        81.8050   57.3920   14.0290 C.3   540  VAL540      0.1727
     83  C         81.1530   56.6450   15.1870 C.2   540  VAL540      0.2616
     84  O         79.9780   56.8290   15.4740 O.2   540  VAL540     -0.2715
     85  CB        82.1080   58.8450   14.4840 C.3   540  VAL540      0.0290
     86  CG1       82.8680   58.8420   15.8100 C.3   540  VAL540      0.0023
     87  CG2       82.9410   59.5510   13.4200 C.3   540  VAL540      0.0023
     88  N         81.9210   55.7850   15.8400 N.am  541  VAL541     -0.1963
     89  CA        81.4090   55.0190   16.9580 C.3   541  VAL541      0.1727
     90  C         81.7450   55.7150   18.2800 C.2   541  VAL541      0.2616
     91  O         82.8600   56.1940   18.4730 O.2   541  VAL541     -0.2715
     92  CB        82.0020   53.5710   16.9580 C.3   541  VAL541      0.0290
     93  CG1       81.4040   52.7610   18.1120 C.3   541  VAL541      0.0023
     94  CG2       81.7040   52.8760   15.6130 C.3   541  VAL541      0.0023
     95  N         80.7750   55.7960   19.1820 N.am  542  ALA542     -0.1977
     96  CA        81.0330   56.4350   20.4710 C.3   542  ALA542      0.1597
     97  C         81.5780   55.4050   21.4500 C.2   542  ALA542      0.2287
     98  O         81.1880   54.2450   21.4060 O.2   542  ALA542     -0.2864
     99  CB        79.7530   57.0330   21.0320 C.3   542  ALA542      0.0319
    100  N         83.1180   54.9040   25.7820 N.3   544  ARG544     -0.1245
    101  CA        82.9960   55.4090   27.1410 C.3   544  ARG544      0.1563
    102  C         84.3320   55.1820   27.8280 C.2   544  ARG544      0.2260
    103  O         85.0340   54.2090   27.5330 O.2   544  ARG544     -0.2867
    104  CB        81.9170   54.6400   27.9040 C.3   544  ARG544      0.0307
    105  CG        80.6060   55.3700   28.1170 C.3   544  ARG544      0.0489
    106  CD        80.1700   56.2330   26.9550 C.3   544  ARG544      0.2205
    107  NE        78.7390   56.5090   27.0320 N.pl3 544  ARG544     -0.0865
    108  CZ        78.0840   57.3510   26.2420 C.cat 544  ARG544      0.5346
    109  NH1       78.7290   58.0310   25.3090 N.pl3 544  ARG544      0.1354
    110  NH2       76.7630   57.4610   26.3480 N.pl3 544  ARG544      0.1354
    111  N         80.4450   50.0560   22.3320 N.3   707  PRO707     -0.2116
    112  CA        79.0050   49.7880   22.2250 C.3   707  PRO707      0.1372
    113  C         78.8350   48.4340   21.5260 C.2   707  PRO707      0.2244
    114  O         79.5650   48.1220   20.5810 O.2   707  PRO707     -0.2868
    115  CB        78.4790   50.9320   21.3550 C.3   707  PRO707      0.0268
    116  CG        79.6670   51.7780   21.0290 C.3   707  PRO707      0.0207
    117  CD        80.8890   50.9740   21.2720 C.3   707  PRO707      0.0892
    118  N         75.9810   45.6180   19.8150 N.3   709  PHE709     -0.1241
    119  CA        74.6580   45.3820   19.2510 C.3   709  PHE709      0.1605
    120  C         74.1220   44.0090   19.6360 C.2   709  PHE709      0.2264
    121  O         74.8850   43.0720   19.8690 O.2   709  PHE709     -0.2867
    122  CB        74.7090   45.3690   17.7140 C.3   709  PHE709      0.0534
    123  CG        74.6950   46.7180   17.0670 C.ar  709  PHE709     -0.0203
    124  CD1       73.8560   47.7150   17.5310 C.ar  709  PHE709     -0.0042
    125  CD2       75.4640   46.9580   15.9240 C.ar  709  PHE709     -0.0042
    126  CE1       73.7730   48.9290   16.8760 C.ar  709  PHE709     -0.0003
    127  CE2       75.3880   48.1750   15.2540 C.ar  709  PHE709     -0.0003
    128  CZ        74.5400   49.1620   15.7300 C.ar  709  PHE709     -0.0000
    129  N         79.6440   47.1340   17.8340 N.3   751  VAL751     -0.1245
    130  CA        79.2410   48.0830   16.8100 C.3   751  VAL751      0.1561
    131  C         80.3880   48.3770   15.8360 C.2   751  VAL751      0.2260
    132  O         80.1400   48.5160   14.6420 O.2   751  VAL751     -0.2867
    133  CB        78.7390   49.4310   17.4270 C.3   751  VAL751      0.0252
    134  CG1       78.4370   50.4310   16.3020 C.3   751  VAL751      0.0019
    135  CG2       77.4800   49.2030   18.2500 C.3   751  VAL751      0.0019
    136  N         80.2330   47.2610   10.4340 N.3   755  PHE755     -0.1241
    137  CA        80.1830   47.9420    9.1570 C.3   755  PHE755      0.1605
    138  C         80.5090   46.9640    8.0290 C.2   755  PHE755      0.2264
    139  O         81.5920   46.3900    7.9690 O.2   755  PHE755     -0.2867
    140  CB        81.1200   49.1550    9.1920 C.3   755  PHE755      0.0534
    141  CG        80.7970   50.1160   10.3140 C.ar  755  PHE755     -0.0203
    142  CD1       79.4760   50.5110   10.5440 C.ar  755  PHE755     -0.0042
    143  CD2       81.7930   50.5980   11.1600 C.ar  755  PHE755     -0.0042
    144  CE1       79.1490   51.3680   11.6020 C.ar  755  PHE755     -0.0003
    145  CE2       81.4780   51.4580   12.2230 C.ar  755  PHE755     -0.0003
    146  CZ        80.1520   51.8420   12.4420 C.ar  755  PHE755     -0.0000
    147  N         69.5820   44.5160   13.9380 N.3   773  MET773     -0.1230
    148  CA        70.5140   44.9150   15.0030 C.3   773  MET773      0.1702
    149  C         70.0090   46.0990   15.8300 C.2   773  MET773      0.2592
    150  O         69.5070   47.0710   15.2780 O.2   773  MET773     -0.2718
    151  CB        71.8750   45.3150   14.4150 C.3   773  MET773      0.0401
    152  CG        72.4810   44.3500   13.4090 C.3   773  MET773      0.0596
    153  SD        74.1310   44.9060   12.8860 S.3   773  MET773     -0.1393
    154  CE        73.7540   46.5200   12.2270 C.3   773  MET773      0.0692
    155  N         70.1620   46.0120   17.1480 N.am  774  VAL774     -0.1966
    156  CA        69.7580   47.0870   18.0490 C.3   774  VAL774      0.1727
    157  C         70.8150   47.2390   19.1300 C.2   774  VAL774      0.2616
    158  O         71.3570   46.2430   19.6030 O.2   774  VAL774     -0.2715
    159  CB        68.3770   46.8120   18.7140 C.3   774  VAL774      0.0290
    160  CG1       68.4220   45.5470   19.5680 C.3   774  VAL774      0.0023
    161  CG2       67.9820   48.0030   19.5610 C.3   774  VAL774      0.0023
    162  N         71.1200   48.4820   19.5050 N.am  775  PHE775     -0.1974
    163  CA        72.1280   48.7310   20.5300 C.3   775  PHE775      0.1639
    164  C         71.7080   48.0150   21.7980 C.2   775  PHE775      0.2290
    165  O         70.5640   48.1270   22.2240 O.2   775  PHE775     -0.2864
    166  CB        72.2660   50.2220   20.8440 C.3   775  PHE775      0.0560
    167  CG        73.1410   50.4970   22.0400 C.ar  775  PHE775     -0.0200
    168  CD1       74.4930   50.1650   22.0170 C.ar  775  PHE775     -0.0042
    169  CD2       72.6060   51.0410   23.2030 C.ar  775  PHE775     -0.0042
    170  CE1       75.3040   50.3690   23.1360 C.ar  775  PHE775     -0.0003
    171  CE2       73.4040   51.2500   24.3260 C.ar  775  PHE775     -0.0003
    172  CZ        74.7620   50.9110   24.2920 C.ar  775  PHE775     -0.0000
    173  N         77.2250   48.2470   26.7700 N.3   778  TRP778     -0.1241
    174  CA        78.6220   48.6710   26.7330 C.3   778  TRP778      0.1605
    175  C         79.5020   47.5270   27.2170 C.2   778  TRP778      0.2264
    176  O         79.1800   46.8420   28.1850 O.2   778  TRP778     -0.2867
    177  CB        78.8440   49.8730   27.6540 C.3   778  TRP778      0.0550
    178  CG        78.1580   51.0900   27.1920 C.ar  778  TRP778      0.0003
    179  CD1       76.9870   51.6000   27.6630 C.ar  778  TRP778      0.0946
    180  CD2       78.5870   51.9580   26.1330 C.ar  778  TRP778      0.0152
    181  NE1       76.6560   52.7380   26.9660 N.ar  778  TRP778     -0.2442
    182  CE2       77.6200   52.9820   26.0230 C.ar  778  TRP778      0.0810
    183  CE3       79.6940   51.9720   25.2670 C.ar  778  TRP778      0.0012
    184  CZ2       77.7230   54.0120   25.0780 C.ar  778  TRP778      0.0191
    185  CZ3       79.7950   52.9950   24.3260 C.ar  778  TRP778      0.0001
    186  CH2       78.8110   54.0050   24.2450 C.ar  778  TRP778      0.0015
@<TRIPOS>BOND
     1    17    18    1
     2     8     9    1
     3    10    11    2
     4    10     9    1
     5   139   138    2
     6     9    12    1
     7   138   137    1
     8    20    19    2
     9     2     1    1
    10     2     3    1
    11     2     5    1
    12    18    19    1
    13    18    21    1
    14     1     7    1
    15     3     4    2
    16   137   140    1
    17   137   136    1
    18   140   141    1
    19     5     6    1
    20    68    69    2
    21    68    67    1
    22    12    13    1
    23     6     7    1
    24    80    74    1
    25    80    79    1
    26    21    22    1
    27    74    75    1
    28    13    14    1
    29    67    66    1
    30    67    70    1
    31   141   142   ar
    32   141   143   ar
    33   142   144   ar
    34    72    70    1
    35    79    78    1
    36   143   145   ar
    37    75    78    1
    38    75    76    1
    39    22    24    1
    40    22    23    1
    41    70    71    1
    42    14    16   am
    43    14    15    2
    44   144   146   ar
    45    73    71    1
    46    25    26    1
    47   145   146   ar
    48   154   153    1
    49    76    77    2
    50    76    81   am
    51    28    27    2
    52   153   152    1
    53    81    82    1
    54    34    32   ar
    55    34    35   ar
    56    32    30   ar
    57    26    27    1
    58    26    29    1
    59   152   151    1
    60    87    85    1
    61    27    37   am
    62   147   148    1
    63    82    85    1
    64    82    83    1
    65    36    35    1
    66    35    33   ar
    67    44    43    1
    68    30    29    1
    69    30    31   ar
    70   151   148    1
    71    85    86    1
    72   132   131    2
    73    37    38    1
    74    43    42    1
    75   148   149    1
    76    33    31   ar
    77    38    41    1
    78    38    39    1
    79    83    84    2
    80    83    88   am
    81   127   128   ar
    82   127   125   ar
    83   150   149    2
    84    94    92    1
    85    50    49    1
    86    49    46    1
    87    45    39   am
    88    45    46    1
    89   128   126   ar
    90   149   155   am
    91   131   130    1
    92    88    89    1
    93   125   123   ar
    94    41    42    1
    95    39    40    2
    96   134   133    1
    97    46    47    1
    98    63    62    2
    99   130   133    1
   100   130   129    1
   101   126   124   ar
   102    92    89    1
   103    92    93    1
   104    89    90    1
   105   123   124   ar
   106   123   122    1
   107   155   156    1
   108    62    61    1
   109   133   135    1
   110    64    61    1
   111    64    65    1
   112   122   119    1
   113    47    48    2
   114    47    51   am
   115   156   159    1
   116   156   157    1
   117    61    60    1
   118    90    91    2
   119    90    95   am
   120    60    53   am
   121    51    52    1
   122   159   161    1
   123   159   160    1
   124   157   162   am
   125   157   158    2
   126    95    96    1
   127   119   120    1
   128   119   118    1
   129   162   163    1
   130   120   121    2
   131    53    52    1
   132    53    54    2
   133    52    55    1
   134    96    99    1
   135    96    97    1
   136   163   166    1
   137   163   164    1
   138   114   113    2
   139    55    56    1
   140   166   167    1
   141   116   117    1
   142   116   115    1
   143   117   111    1
   144   115   112    1
   145    98    97    2
   146   113   112    1
   147   164   165    2
   148   168   167   ar
   149   168   170   ar
   150   167   169   ar
   151    56    57    1
   152   112   111    1
   153    58    57   ar
   154    57    59   ar
   155   170   172   ar
   156   169   171   ar
   157   186   185   ar
   158   186   184   ar
   159   172   171   ar
   160   185   183   ar
   161   184   182   ar
   162   183   180   ar
   163   109   108    1
   164   100   101    1
   165   182   180   ar
   166   182   181   ar
   167   180   178   ar
   168   108   110    1
   169   108   107    2
   170   174   173    1
   171   174   175    1
   172   174   177    1
   173   106   107    1
   174   106   105    1
   175   181   179   ar
   176   101   102    1
   177   101   104    1
   178   178   177    1
   179   178   179   ar
   180   175   176    2
   181   103   102    2
   182   104   105    1
