@<TRIPOS>MOLECULE
tmp/1n1dB00.pdb
 243 236 0 0 0
SMALL
GASTEIGER

@<TRIPOS>ATOM
      1  N         30.8330   51.6140   55.0630 N.3     6  THR6       -0.1203
      2  CA        32.0270   52.2010   54.4490 C.3     6  THR6        0.1994
      3  C         31.7460   53.6890   54.2320 C.2     6  THR6        0.2618
      4  O         30.5920   54.0690   54.0370 O.2     6  THR6       -0.2717
      5  CB        32.3580   51.5370   53.0860 C.3     6  THR6        0.1784
      6  OG1       33.6960   51.8860   52.6890 O.3     6  THR6       -0.2211
      7  CG2       31.3790   51.9990   52.0180 C.3     6  THR6        0.0376
      8  N         32.7850   54.5230   54.2890 N.am    7  TYR7       -0.1961
      9  CA        32.6330   55.9840   54.1130 C.3     7  TYR7        0.1774
     10  C         33.4390   56.5210   52.9300 C.2     7  TYR7        0.2659
     11  O         34.5310   56.0300   52.6590 O.2     7  TYR7       -0.2711
     12  CB        33.1040   56.7270   55.3700 C.3     7  TYR7        0.0574
     13  CG        32.2750   56.4860   56.6040 C.ar    7  TYR7       -0.0198
     14  CD1       32.2280   55.2320   57.2060 C.ar    7  TYR7       -0.0009
     15  CD2       31.5220   57.5180   57.1640 C.ar    7  TYR7       -0.0009
     16  CE1       31.4440   55.0080   58.3440 C.ar    7  TYR7        0.0417
     17  CE2       30.7400   57.3050   58.2940 C.ar    7  TYR7        0.0417
     18  CZ        30.7040   56.0470   58.8790 C.ar    7  TYR7        0.1957
     19  OH        29.9270   55.8440   59.9950 O.3     7  TYR7       -0.2866
     20  N         32.9110   57.5400   52.2490 N.am    8  GLY8       -0.1716
     21  CA        33.6210   58.1230   51.1210 C.2     8  GLY8        0.1480
     22  C         32.8750   59.2030   50.3420 C.2     8  GLY8        0.2821
     23  O         31.6780   59.4110   50.5440 O.2     8  GLY8       -0.2669
     24  N         33.5900   59.8860   49.4470 N.am    9  THR9       -0.1902
     25  CA        33.0060   60.9380   48.6200 C.3     9  THR9        0.2031
     26  C         32.3860   60.3960   47.3290 C.2     9  THR9        0.2642
     27  O         31.2930   60.8030   46.9250 O.2     9  THR9       -0.2714
     28  CB        34.0540   62.0030   48.2240 C.3     9  THR9        0.1808
     29  OG1       34.4520   62.7380   49.3830 O.3     9  THR9       -0.2208
     30  CG2       33.4640   62.9690   47.1840 C.3     9  THR9        0.0379
     31  N         33.1010   59.4980   46.6640 N.am   10  PHE10      -0.1959
     32  CA        32.6120   58.9010   45.4310 C.3    10  PHE10       0.1771
     33  C         32.2230   59.8810   44.3250 C.2    10  PHE10       0.2619
     34  O         31.1460   59.7740   43.7370 O.2    10  PHE10      -0.2715
     35  CB        31.4320   57.9880   45.7620 C.3    10  PHE10       0.0574
     36  CG        31.7990   56.8660   46.6860 C.ar   10  PHE10      -0.0200
     37  CD1       31.4190   56.8870   48.0240 C.ar   10  PHE10      -0.0042
     38  CD2       32.5570   55.7970   46.2170 C.ar   10  PHE10      -0.0042
     39  CE1       31.7950   55.8590   48.8840 C.ar   10  PHE10      -0.0003
     40  CE2       32.9390   54.7620   47.0690 C.ar   10  PHE10      -0.0003
     41  CZ        32.5560   54.7950   48.4030 C.ar   10  PHE10      -0.0000
     42  N         33.1040   60.8280   44.0350 N.am   11  ASP11      -0.1971
     43  CA        32.8410   61.7910   42.9770 C.3    11  ASP11       0.1709
     44  C         33.2650   61.1630   41.6510 C.2    11  ASP11       0.2293
     45  O         34.1890   60.3530   41.6190 O.2    11  ASP11      -0.2864
     46  CB        33.6310   63.0780   43.2260 C.3    11  ASP11       0.1436
     47  CG        33.2490   64.1880   42.2570 C.2    11  ASP11       0.3671
     48  OD1       32.0580   64.2520   41.9030 O.co2  11  ASP11      -0.2456
     49  OD2       34.1290   64.9800   41.8690 O.co2  11  ASP11      -0.2456
     50  N         33.9240   55.8410   39.3460 N.3    14  HIS14      -0.1241
     51  CA        34.6910   55.0730   38.3680 C.3    14  HIS14       0.1621
     52  C         34.8210   53.5920   38.7500 C.2    14  HIS14       0.2264
     53  O         34.3130   53.1610   39.7910 O.2    14  HIS14      -0.2867
     54  CB        36.0840   55.6940   38.1860 C.3    14  HIS14       0.0745
     55  CG        36.8400   55.8940   39.4630 C.ar   14  HIS14       0.0817
     56  ND1       37.3050   54.8460   40.2260 N.ar   14  HIS14      -0.2268
     57  CD2       37.2220   57.0250   40.1040 C.ar   14  HIS14       0.1154
     58  CE1       37.9390   55.3220   41.2830 C.ar   14  HIS14       0.1986
     59  NE2       37.9020   56.6410   41.2340 N.ar   14  HIS14      -0.2212
     60  N         37.2550   51.9190   39.9510 N.3    16  GLY16      -0.1210
     61  CA        37.9990   51.6610   41.1750 C.3    16  GLY16       0.1956
     62  C         37.0540   51.6780   42.3630 C.2    16  GLY16       0.2611
     63  O         37.2070   50.9070   43.3080 O.2    16  GLY16      -0.2717
     64  N         36.0690   52.5690   42.3110 N.am   17  HIS17      -0.1975
     65  CA        35.0820   52.6710   43.3710 C.3    17  HIS17       0.1656
     66  C         34.2170   51.4240   43.3370 C.2    17  HIS17       0.2291
     67  O         33.8870   50.8480   44.3760 O.2    17  HIS17      -0.2864
     68  CB        34.1870   53.8870   43.1590 C.3    17  HIS17       0.0771
     69  CG        34.8810   55.1960   43.3590 C.ar   17  HIS17       0.0820
     70  ND1       34.5050   56.3410   42.6930 N.ar   17  HIS17      -0.2267
     71  CD2       35.9060   55.5470   44.1710 C.ar   17  HIS17       0.1154
     72  CE1       35.2700   57.3450   43.0840 C.ar   17  HIS17       0.1986
     73  NE2       36.1270   56.8900   43.9780 N.ar   17  HIS17      -0.2212
     74  N         35.7080   48.4900   44.9330 N.3    20  LEU20      -0.1245
     75  CA        35.7860   48.6690   46.3770 C.3    20  LEU20       0.1561
     76  C         34.4350   48.2740   46.9800 C.2    20  LEU20       0.2260
     77  O         34.3830   47.5690   47.9920 O.2    20  LEU20      -0.2867
     78  CB        36.1290   50.1320   46.7140 C.3    20  LEU20       0.0270
     79  CG        36.3060   50.5940   48.1620 C.3    20  LEU20       0.0019
     80  CD1       34.9420   50.7600   48.8220 C.3    20  LEU20       0.0001
     81  CD2       37.1760   49.6070   48.9450 C.3    20  LEU20       0.0001
     82  N         33.8750   44.3170   46.7410 N.3    23  ARG23      -0.1245
     83  CA        34.5950   43.6080   47.7960 C.3    23  ARG23       0.1563
     84  C         34.1080   43.9790   49.1980 C.2    23  ARG23       0.2260
     85  O         34.2900   43.2070   50.1450 O.2    23  ARG23      -0.2867
     86  CB        36.1060   43.8660   47.6570 C.3    23  ARG23       0.0307
     87  CG        36.7130   43.2460   46.3870 C.3    23  ARG23       0.0489
     88  CD        38.1700   43.6370   46.2110 C.3    23  ARG23       0.2205
     89  NE        38.3210   45.0730   46.0160 N.pl3  23  ARG23      -0.0865
     90  CZ        39.4540   45.7340   46.2180 C.cat  23  ARG23       0.5346
     91  NH1       40.5370   45.0840   46.6250 N.pl3  23  ARG23       0.1354
     92  NH2       39.5060   47.0440   46.0120 N.pl3  23  ARG23       0.1354
     93  N         30.1980   61.4480   51.8220 N.3    36  SER36      -0.1217
     94  CA        30.5990   62.7610   52.3150 C.3    36  SER36       0.1889
     95  C         29.7310   63.8970   51.7570 C.2    36  SER36       0.2288
     96  O         29.4920   63.9840   50.5470 O.2    36  SER36      -0.2866
     97  CB        32.0650   63.0160   51.9500 C.3    36  SER36       0.2089
     98  OG        32.8910   61.9350   52.3410 O.3    36  SER36      -0.2183
     99  N         31.2990   68.3850   54.3740 N.3    40  PHE40      -0.1241
    100  CA        32.3590   67.5570   54.9430 C.3    40  PHE40       0.1605
    101  C         33.5380   67.4030   53.9800 C.2    40  PHE40       0.2264
    102  O         34.6950   67.3560   54.4010 O.2    40  PHE40      -0.2867
    103  CB        31.8260   66.1700   55.3280 C.3    40  PHE40       0.0534
    104  CG        32.8380   65.3230   56.0450 C.ar   40  PHE40      -0.0203
    105  CD1       33.4250   65.7760   57.2250 C.ar   40  PHE40      -0.0042
    106  CD2       33.2420   64.1000   55.5230 C.ar   40  PHE40      -0.0042
    107  CE1       34.4040   65.0270   57.8680 C.ar   40  PHE40      -0.0003
    108  CE2       34.2200   63.3440   56.1600 C.ar   40  PHE40      -0.0003
    109  CZ        34.8020   63.8120   57.3360 C.ar   40  PHE40      -0.0000
    110  N         37.9520   67.8020   54.1870 N.3    44  LYS44      -0.1245
    111  CA        38.9900   66.8940   53.7030 C.3    44  LYS44       0.1561
    112  C         39.7930   67.6270   52.6260 C.2    44  LYS44       0.2260
    113  O         40.5290   67.0090   51.8580 O.2    44  LYS44      -0.2867
    114  CB        38.3720   65.6160   53.1120 C.3    44  LYS44       0.0271
    115  CG        37.9080   64.5890   54.1500 C.3    44  LYS44       0.0035
    116  CD        37.3850   63.2980   53.5100 C.3    44  LYS44       0.0206
    117  CE        36.2000   63.5540   52.5870 C.3    44  LYS44       0.1093
    118  NZ        35.6350   62.2880   52.0010 N.3    44  LYS44      -0.1314
    119  N         38.7660   69.0040   49.9660 N.3    46  LYS46      -0.1245
    120  CA        38.3150   68.6220   48.6310 C.3    46  LYS46       0.1561
    121  C         37.0000   69.2830   48.2170 C.2    46  LYS46       0.2260
    122  O         36.2480   69.7870   49.0500 O.2    46  LYS46      -0.2867
    123  CB        38.1610   67.0990   48.5440 C.3    46  LYS46       0.0271
    124  CG        39.4550   66.3310   48.7940 C.3    46  LYS46       0.0035
    125  CD        39.3950   64.9050   48.2540 C.3    46  LYS46       0.0206
    126  CE        38.3280   64.0680   48.9460 C.3    46  LYS46       0.1093
    127  NZ        38.4510   62.6170   48.5880 N.3    46  LYS46      -0.1314
    128  N         27.6620   61.5400   55.3100 N.3    71  GLU71      -0.1245
    129  CA        28.8070   61.5800   56.2120 C.3    71  GLU71       0.1567
    130  C         28.9480   63.0920   56.4160 C.2    71  GLU71       0.2260
    131  O         29.3030   63.8210   55.4930 O.2    71  GLU71      -0.2867
    132  CB        30.0790   61.0240   55.5600 C.3    71  GLU71       0.0388
    133  CG        31.2760   60.9630   56.5020 C.3    71  GLU71       0.1160
    134  CD        32.5570   60.4950   55.8190 C.2    71  GLU71       0.3649
    135  OE1       33.5570   60.2960   56.5340 O.co2  71  GLU71      -0.2457
    136  OE2       32.5660   60.3350   54.5840 O.co2  71  GLU71      -0.2457
    137  N         33.6690   63.9570   61.2230 N.3    74  TRP74      -0.1241
    138  CA        34.5740   62.8750   61.6270 C.3    74  TRP74       0.1605
    139  C         34.0730   62.0430   62.8110 C.2    74  TRP74       0.2264
    140  O         34.3090   60.8400   62.8810 O.2    74  TRP74      -0.2867
    141  CB        35.9590   63.4320   62.0170 C.3    74  TRP74       0.0550
    142  CG        36.7520   64.0720   60.9090 C.ar   74  TRP74       0.0003
    143  CD1       37.0540   65.4010   60.7760 C.ar   74  TRP74       0.0946
    144  CD2       37.3440   63.4120   59.7870 C.ar   74  TRP74       0.0152
    145  NE1       37.7970   65.6070   59.6380 N.ar   74  TRP74      -0.2442
    146  CE2       37.9900   64.4010   59.0110 C.ar   74  TRP74       0.0810
    147  CE3       37.3920   62.0790   59.3590 C.ar   74  TRP74       0.0012
    148  CZ2       38.6740   64.0990   57.8290 C.ar   74  TRP74       0.0191
    149  CZ3       38.0740   61.7770   58.1830 C.ar   74  TRP74       0.0001
    150  CH2       38.7050   62.7850   57.4330 C.ar   74  TRP74       0.0015
    151  N         31.0900   58.4000   63.4330 N.3    77  LYS77      -0.1245
    152  CA        31.3220   56.9620   63.2730 C.3    77  LYS77       0.1561
    153  C         30.8360   56.1270   64.4500 C.2    77  LYS77       0.2260
    154  O         30.0690   55.1830   64.2660 O.2    77  LYS77      -0.2867
    155  CB        32.8050   56.6880   63.0100 C.3    77  LYS77       0.0271
    156  CG        33.2860   57.1750   61.6420 C.3    77  LYS77       0.0035
    157  CD        34.6750   56.6500   61.3090 C.3    77  LYS77       0.0206
    158  CE        35.0500   56.9480   59.8670 C.3    77  LYS77       0.1093
    159  NZ        35.1900   58.4030   59.5850 N.3    77  LYS77      -0.1314
    160  N         37.5000   50.1690   54.6350 N.3    91  MET91      -0.1230
    161  CA        38.0020   51.3100   53.8570 C.3    91  MET91       0.1702
    162  C         39.1580   50.8230   52.9590 C.2    91  MET91       0.2592
    163  O         39.7450   49.7700   53.2170 O.2    91  MET91      -0.2718
    164  CB        38.5500   52.4180   54.7820 C.3    91  MET91       0.0401
    165  CG        37.5300   53.1680   55.6230 C.3    91  MET91       0.0596
    166  SD        36.4030   54.1270   54.5710 S.3    91  MET91      -0.1393
    167  CE        37.5590   55.3530   53.7850 C.3    91  MET91       0.0692
    168  N         39.4750   51.5830   51.9120 N.am   92  GLY92      -0.1957
    169  CA        40.5850   51.2230   51.0380 C.3    92  GLY92       0.1869
    170  C         41.8680   51.4090   51.8410 C.2    92  GLY92       0.2309
    171  O         41.9360   52.3200   52.6880 O.2    92  GLY92      -0.2863
    172  N         44.3940   53.0230   51.6880 N.3    94  ASP94      -0.1225
    173  CA        45.1360   54.2690   51.7300 C.3    94  ASP94       0.1805
    174  C         44.7820   54.8990   53.0850 C.2    94  ASP94       0.2597
    175  O         45.3270   55.9300   53.4940 O.2    94  ASP94      -0.2718
    176  CB        44.7910   55.1930   50.5530 C.3    94  ASP94       0.1424
    177  CG        43.3020   55.4560   50.4100 C.2    94  ASP94       0.3668
    178  OD1       42.9590   56.6070   50.0910 O.co2  94  ASP94      -0.2456
    179  OD2       42.4860   54.5220   50.5800 O.co2  94  ASP94      -0.2456
    180  N         43.8660   54.2370   53.7920 N.am   95  TRP95      -0.1976
    181  CA        43.4360   54.6700   55.1180 C.3    95  TRP95       0.1640
    182  C         43.9230   53.6680   56.1760 C.2    95  TRP95       0.2290
    183  O         43.5670   53.7700   57.3520 O.2    95  TRP95      -0.2864
    184  CB        41.9000   54.7920   55.1660 C.3    95  TRP95       0.0576
    185  CG        41.3830   56.0430   54.4850 C.ar   95  TRP95       0.0006
    186  CD1       40.9330   56.1610   53.2020 C.ar   95  TRP95       0.0946
    187  CD2       41.3520   57.3650   55.0440 C.ar   95  TRP95       0.0152
    188  NE1       40.6280   57.4770   52.9250 N.ar   95  TRP95      -0.2442
    189  CE2       40.8770   58.2370   54.0380 C.ar   95  TRP95       0.0810
    190  CE3       41.6830   57.8970   56.2980 C.ar   95  TRP95       0.0012
    191  CZ2       40.7260   59.6140   54.2470 C.ar   95  TRP95       0.0191
    192  CZ3       41.5310   59.2690   56.5050 C.ar   95  TRP95       0.0001
    193  CH2       41.0590   60.1070   55.4860 C.ar   95  TRP95       0.0015
    194  N         41.8990   54.0810   61.1810 N.3    99  PHE99      -0.1241
    195  CA        40.6400   53.8540   61.8860 C.3    99  PHE99       0.1605
    196  C         40.6940   52.7070   62.8920 C.2    99  PHE99       0.2264
    197  O         39.6560   52.2180   63.3380 O.2    99  PHE99      -0.2867
    198  CB        39.5060   53.5890   60.8860 C.3    99  PHE99       0.0534
    199  CG        39.1760   54.7730   60.0200 C.ar   99  PHE99      -0.0203
    200  CD1       39.5350   54.7920   58.6730 C.ar   99  PHE99      -0.0042
    201  CD2       38.5420   55.8880   60.5610 C.ar   99  PHE99      -0.0042
    202  CE1       39.2800   55.9120   57.8810 C.ar   99  PHE99      -0.0003
    203  CE2       38.2830   57.0140   59.7790 C.ar   99  PHE99      -0.0003
    204  CZ        38.6520   57.0230   58.4340 C.ar   99  PHE99      -0.0000
    205  N         43.7420   49.2690   47.3910 N.3   113  ARG113     -0.1231
    206  CA        43.1450   50.1660   46.4020 C.3   113  ARG113      0.1694
    207  C         43.3240   49.6340   44.9970 C.2   113  ARG113      0.2592
    208  O         44.1730   48.7830   44.7540 O.2   113  ARG113     -0.2718
    209  CB        43.8080   51.5410   46.4330 C.3   113  ARG113      0.0321
    210  CG        43.5420   52.3920   47.6410 C.3   113  ARG113      0.0489
    211  CD        44.4750   53.5880   47.5760 C.3   113  ARG113      0.2205
    212  NE        44.3180   54.3210   46.3200 N.pl3 113  ARG113     -0.0865
    213  CZ        43.4330   55.2960   46.1250 C.cat 113  ARG113      0.5346
    214  NH1       42.6240   55.6620   47.1110 N.pl3 113  ARG113      0.1354
    215  NH2       43.3540   55.9050   44.9440 N.pl3 113  ARG113      0.1354
    216  N         42.5200   50.1480   44.0710 N.am  114  THR114     -0.1953
    217  CA        42.6450   49.7590   42.6760 C.3   114  THR114      0.1897
    218  C         43.6630   50.7240   42.0770 C.2   114  THR114      0.2313
    219  O         43.3720   51.9020   41.8820 O.2   114  THR114     -0.2863
    220  CB        41.3240   49.8940   41.9170 C.3   114  THR114      0.1794
    221  OG1       40.3760   48.9460   42.4320 O.3   114  THR114     -0.2208
    222  CG2       41.5380   49.6380   40.4360 C.3   114  THR114      0.0378
    223  N         43.7220   54.2970   38.7370 N.3   117  ILE117     -0.1231
    224  CA        42.5510   55.1480   38.4990 C.3   117  ILE117      0.1692
    225  C         42.2200   55.9700   39.7460 C.2   117  ILE117      0.2593
    226  O         42.3480   55.4960   40.8780 O.2   117  ILE117     -0.2718
    227  CB        41.3180   54.2880   38.1080 C.3   117  ILE117      0.0266
    228  CG1       40.1230   55.1760   37.7540 C.3   117  ILE117      0.0019
    229  CG2       40.9670   53.3530   39.2540 C.3   117  ILE117      0.0020
    230  CD1       40.2870   55.9460   36.4540 C.3   117  ILE117      0.0001
    231  N         41.8300   57.2200   39.5370 N.am  118  SER118     -0.1938
    232  CA        41.4780   58.0960   40.6480 C.3   118  SER118      0.2055
    233  C         40.7680   59.3110   40.1030 C.2   118  SER118      0.2643
    234  O         40.8770   59.6270   38.9120 O.2   118  SER118     -0.2714
    235  CB        42.7250   58.5350   41.4260 C.3   118  SER118      0.2130
    236  OG        43.4660   59.5120   40.7230 O.3   118  SER118     -0.2179
    237  N         40.0370   59.9910   40.9780 N.am  119  THR119     -0.1950
    238  CA        39.2980   61.1880   40.5950 C.3   119  THR119      0.1897
    239  C         40.2530   62.2620   40.0800 C.2   119  THR119      0.2313
    240  O         39.9320   62.9780   39.1330 O.2   119  THR119     -0.2863
    241  CB        38.4790   61.7240   41.7950 C.3   119  THR119      0.1794
    242  OG1       37.5400   60.7160   42.2160 O.3   119  THR119     -0.2208
    243  CG2       37.7100   62.9710   41.4000 C.3   119  THR119      0.0378
@<TRIPOS>BOND
     1   230   228    1
     2   228   227    1
     3   227   224    1
     4   227   229    1
     5    54    51    1
     6    54    55    1
     7    51    52    1
     8    51    50    1
     9   224   223    1
    10   224   225    1
    11    52    53    2
    12   234   233    2
    13   240   239    2
    14    55    57   ar
    15    55    56   ar
    16   231   225   am
    17   231   232    1
    18   225   226    2
    19    60    61    1
    20   239   238    1
    21   233   232    1
    22   233   237   am
    23    57    59   ar
    24    56    58   ar
    25   222   220    1
    26   238   237    1
    27   238   241    1
    28   232   235    1
    29   236   235    1
    30    61    62    1
    31    59    58   ar
    32   243   241    1
    33    45    44    2
    34    44    43    1
    35   241   242    1
    36    49    47   ar
    37   219   218    2
    38    48    47   ar
    39   220   221    1
    40   220   217    1
    41   218   217    1
    42    47    46    1
    43    64    62   am
    44    64    65    1
    45    62    63    2
    46   217   216    1
    47    70    72   ar
    48    70    69   ar
    49    43    46    1
    50    43    42    1
    51    72    73   ar
    52    68    69    1
    53    68    65    1
    54    66    65    1
    55    66    67    2
    56    69    71   ar
    57    34    33    2
    58    73    71   ar
    59    42    33   am
    60   216   207   am
    61    33    32    1
    62   208   207    2
    63    74    75    1
    64   215   213    1
    65   207   206    1
    66    32    35    1
    67    32    31    1
    68    35    36    1
    69    92    90    1
    70    89    88    1
    71    89    90    2
    72   213   212    2
    73   213   214    1
    74    88    87    1
    75    38    36   ar
    76    38    40   ar
    77    90    91    1
    78   212   211    1
    79    75    78    1
    80    75    76    1
    81    87    86    1
    82   206   209    1
    83   206   205    1
    84   209   210    1
    85    31    26   am
    86    36    37   ar
    87    78    79    1
    88    82    83    1
    89    27    26    2
    90    76    77    2
    91    40    41   ar
    92    30    28    1
    93    26    25    1
    94   211   210    1
    95    86    83    1
    96    83    84    1
    97    37    39   ar
    98    79    80    1
    99    79    81    1
   100   121   120    1
   101   121   122    2
   102    28    25    1
   103    28    29    1
   104   125   124    1
   105   125   126    1
   106    41    39   ar
   107   123   120    1
   108   123   124    1
   109   127   126    1
   110    25    24    1
   111   120   119    1
   112    84    85    2
   113    24    22   am
   114   178   177   ar
   115    22    23    2
   116    22    21    1
   117   177   176    1
   118   177   179   ar
   119    96    95    2
   120   176   173    1
   121   169   170    1
   122   169   168    1
   123    21    20    2
   124   172   173    1
   125   173   174    1
   126    95    94    1
   127    93    94    1
   128   170   171    2
   129   113   112    2
   130   168   162   am
   131    97    94    1
   132    97    98    1
   133   118   117    1
   134     7     5    1
   135    20    10    1
   136   117   116    1
   137   112   111    1
   138    11    10    2
   139     6     5    1
   140   188   186   ar
   141   188   189   ar
   142    10     9    1
   143   162   163    2
   144   162   161    1
   145   174   175    2
   146   174   180   am
   147     5     2    1
   148   114   111    1
   149   114   115    1
   150   186   185   ar
   151   116   115    1
   152   111   110    1
   153   167   166    1
   154   180   181    1
   155   161   160    1
   156   161   164    1
   157   101   102    2
   158   101   100    1
   159     4     3    2
   160   189   191   ar
   161   189   187   ar
   162     9     8    1
   163     9    12    1
   164     3     8   am
   165     3     2    1
   166   191   193   ar
   167    99   100    1
   168     2     1    1
   169   185   187   ar
   170   185   184    1
   171   166   165    1
   172   136   134   ar
   173   164   165    1
   174   100   103    1
   175   187   190   ar
   176   181   184    1
   177   181   182    1
   178   128   129    1
   179   103   104    1
   180    12    13    1
   181   193   192   ar
   182   131   130    2
   183   106   104   ar
   184   106   108   ar
   185   132   129    1
   186   132   133    1
   187   134   133    1
   188   134   135   ar
   189   104   105   ar
   190   108   109   ar
   191   182   183    2
   192   129   130    1
   193   190   192   ar
   194    13    15   ar
   195    13    14   ar
   196    15    17   ar
   197    14    16   ar
   198   105   107   ar
   199   109   107   ar
   200   150   148   ar
   201   150   149   ar
   202   148   146   ar
   203   202   204   ar
   204   202   200   ar
   205   149   147   ar
   206    17    18   ar
   207    16    18   ar
   208   204   203   ar
   209   200   199   ar
   210    18    19    1
   211   146   145   ar
   212   146   144   ar
   213   147   144   ar
   214   159   158    1
   215   145   143   ar
   216   203   201   ar
   217   144   142   ar
   218   158   157    1
   219   199   201   ar
   220   199   198    1
   221   143   142   ar
   222   198   195    1
   223   142   141    1
   224   194   195    1
   225   137   138    1
   226   157   156    1
   227   138   141    1
   228   138   139    1
   229   156   155    1
   230   195   196    1
   231   139   140    2
   232   196   197    2
   233   155   152    1
   234   152   151    1
   235   152   153    1
   236   154   153    2
