@<TRIPOS>MOLECULE
tmp/1n1gA02.pdb
 152 139 0 0 0
SMALL
GASTEIGER

@<TRIPOS>ATOM
      1  N         34.4920   54.8090    3.0750 N.3   208  GLY208     -0.1225
      2  CA        34.5640   55.0430    1.6390 C.3   208  GLY208      0.1811
      3  C         34.7390   53.7520    0.8530 C.2   208  GLY208      0.2280
      4  O         34.1450   53.5610   -0.2130 O.2   208  GLY208     -0.2866
      5  N         31.4120   52.3440    0.6870 N.3   211  VAL211     -0.1231
      6  CA        30.6430   53.1180   -0.2920 C.3   211  VAL211      0.1692
      7  C         30.9300   52.6270   -1.7110 C.2   211  VAL211      0.2591
      8  O         30.0030   52.3400   -2.4650 O.2   211  VAL211     -0.2718
      9  CB        30.9080   54.6470   -0.1720 C.3   211  VAL211      0.0266
     10  CG1       30.2770   55.4030   -1.3190 C.3   211  VAL211      0.0020
     11  CG2       30.3890   55.1920    1.1540 C.3   211  VAL211      0.0020
     12  N         32.2150   52.5110   -2.0500 N.am  212  ALA212     -0.1980
     13  CA        32.6440   51.9870   -3.3420 C.3   212  ALA212      0.1597
     14  C         32.0290   50.6190   -3.6630 C.2   212  ALA212      0.2287
     15  O         31.5500   50.4060   -4.7800 O.2   212  ALA212     -0.2864
     16  CB        34.1750   51.9430   -3.4250 C.3   212  ALA212      0.0319
     17  N         28.2460   51.0330   -4.2740 N.3   215  LEU215     -0.1245
     18  CA        28.0150   51.7140   -5.5400 C.3   215  LEU215      0.1561
     19  C         28.1660   50.7560   -6.7430 C.2   215  LEU215      0.2260
     20  O         27.8370   51.1090   -7.8760 O.2   215  LEU215     -0.2867
     21  CB        28.9950   52.8830   -5.6650 C.3   215  LEU215      0.0270
     22  CG        28.5310   54.3390   -5.5180 C.3   215  LEU215      0.0019
     23  CD1       27.2930   54.5030   -4.6220 C.3   215  LEU215      0.0001
     24  CD2       29.6710   55.2100   -5.0230 C.3   215  LEU215      0.0001
     25  N         31.2580   49.2780   -7.4920 N.3   217  MET217     -0.1245
     26  CA        32.6720   49.2600   -7.9000 C.3   217  MET217      0.1570
     27  C         33.4040   48.0060   -7.4120 C.2   217  MET217      0.2261
     28  O         32.9080   47.2810   -6.5540 O.2   217  MET217     -0.2867
     29  CB        33.3890   50.5220   -7.4270 C.3   217  MET217      0.0387
     30  CG        32.6590   51.8000   -7.7490 C.3   217  MET217      0.0595
     31  SD        33.5960   53.2550   -7.3010 S.3   217  MET217     -0.1393
     32  CE        33.2120   54.3050   -8.6200 C.3   217  MET217      0.0692
     33  N         38.8880   49.8330   -7.8310 N.3   221  ALA221     -0.1245
     34  CA        38.4300   51.0360   -7.1390 C.3   221  ALA221      0.1562
     35  C         38.9690   51.1190   -5.7080 C.2   221  ALA221      0.2260
     36  O         39.5010   52.1500   -5.2980 O.2   221  ALA221     -0.2867
     37  CB        36.9150   51.0940   -7.1390 C.3   221  ALA221      0.0290
     38  N         42.6000   51.9670   -5.7090 N.3   224  ALA224     -0.1231
     39  CA        42.7890   53.4020   -5.9560 C.3   224  ALA224      0.1694
     40  C         42.4450   54.2780   -4.7490 C.2   224  ALA224      0.2591
     41  O         43.1380   55.2610   -4.4880 O.2   224  ALA224     -0.2718
     42  CB        42.0120   53.8650   -7.1940 C.3   224  ALA224      0.0304
     43  N         41.3760   53.9180   -4.0320 N.am  225  LEU225     -0.1980
     44  CA        40.9600   54.5900   -2.7950 C.3   225  LEU225      0.1596
     45  C         42.0620   54.5370   -1.7270 C.2   225  LEU225      0.2287
     46  O         42.3570   55.5400   -1.0800 O.2   225  LEU225     -0.2864
     47  CB        39.6720   53.9610   -2.2400 C.3   225  LEU225      0.0297
     48  CG        39.2140   54.4760   -0.8670 C.3   225  LEU225      0.0022
     49  CD1       37.8260   55.0720   -0.9240 C.3   225  LEU225      0.0001
     50  CD2       39.2670   53.3810    0.1710 C.3   225  LEU225      0.0001
     51  N         45.0710   56.8840   -3.0840 N.3   228  ARG228     -0.1245
     52  CA        44.7740   58.3080   -3.0190 C.3   228  ARG228      0.1563
     53  C         44.5750   58.7560   -1.5720 C.2   228  ARG228      0.2260
     54  O         45.0580   59.8190   -1.1790 O.2   228  ARG228     -0.2867
     55  CB        43.5770   58.6740   -3.9110 C.3   228  ARG228      0.0307
     56  CG        43.7510   58.2830   -5.4000 C.3   228  ARG228      0.0489
     57  CD        45.0470   58.7620   -6.0530 C.3   228  ARG228      0.2205
     58  NE        45.1680   60.2150   -5.9640 N.pl3 228  ARG228     -0.0865
     59  CZ        46.2280   60.9210   -6.3500 C.cat 228  ARG228      0.5346
     60  NH1       47.2990   60.3230   -6.8580 N.pl3 228  ARG228      0.1354
     61  NH2       46.2200   62.2360   -6.2140 N.pl3 228  ARG228      0.1354
     62  N         40.4250   65.3650    0.0450 N.3   309  PRO309     -0.2102
     63  CA        39.2850   65.1590   -0.8640 C.3   309  PRO309      0.1504
     64  C         38.4000   63.9620   -0.5210 C.2   309  PRO309      0.2575
     65  O         37.1940   64.1520   -0.3620 O.2   309  PRO309     -0.2718
     66  CB        39.9480   64.9740   -2.2400 C.3   309  PRO309      0.0282
     67  CG        41.2780   65.6540   -2.1300 C.3   309  PRO309      0.0208
     68  CD        41.7030   65.4900   -0.6880 C.3   309  PRO309      0.0893
     69  N         38.9700   62.7630   -0.4240 N.am  310  LEU310     -0.1980
     70  CA        38.1800   61.5650   -0.1390 C.3   310  LEU310      0.1596
     71  C         37.5000   61.6420    1.2240 C.2   310  LEU310      0.2287
     72  O         36.2990   61.4100    1.3340 O.2   310  LEU310     -0.2864
     73  CB        39.0360   60.3060   -0.2090 C.3   310  LEU310      0.0297
     74  CG        39.3320   59.7270   -1.5860 C.3   310  LEU310      0.0022
     75  CD1       40.6680   59.0070   -1.5430 C.3   310  LEU310      0.0001
     76  CD2       38.2300   58.7660   -2.0040 C.3   310  LEU310      0.0001
     77  N         34.5920   64.1240    1.2610 N.3   313  GLN313     -0.1231
     78  CA        33.4050   63.5400    0.6320 C.3   313  GLN313      0.1698
     79  C         32.7590   62.4520    1.4890 C.2   313  GLN313      0.2592
     80  O         31.5370   62.3060    1.4660 O.2   313  GLN313     -0.2718
     81  CB        33.7030   62.9920   -0.7670 C.3   313  GLN313      0.0381
     82  CG        34.0500   64.0350   -1.8370 C.3   313  GLN313      0.0905
     83  CD        33.0540   65.1870   -1.9240 C.2   313  GLN313      0.2608
     84  OE1       31.8420   64.9820   -1.9240 O.2   313  GLN313     -0.2717
     85  NE2       33.5730   66.4020   -2.0030 N.am  313  GLN313     -0.0878
     86  N         33.5650   61.6980    2.2390 N.am  314  ILE314     -0.1980
     87  CA        33.0180   60.6960    3.1550 C.3   314  ILE314      0.1595
     88  C         32.2770   61.3800    4.3110 C.2   314  ILE314      0.2287
     89  O         31.2040   60.9340    4.7060 O.2   314  ILE314     -0.2864
     90  CB        34.1000   59.6860    3.6590 C.3   314  ILE314      0.0276
     91  CG1       34.5830   58.7940    2.5110 C.3   314  ILE314      0.0022
     92  CG2       33.5510   58.7960    4.7890 C.3   314  ILE314      0.0022
     93  CD1       36.0130   58.2910    2.6730 C.3   314  ILE314      0.0001
     94  N         28.8990   62.5350    2.9750 N.3   317  ILE317     -0.1245
     95  CA        27.9640   61.4210    2.8260 C.3   317  ILE317      0.1561
     96  C         27.3830   61.0120    4.1840 C.2   317  ILE317      0.2260
     97  O         26.1790   60.8070    4.3110 O.2   317  ILE317     -0.2867
     98  CB        28.6500   60.2140    2.1150 C.3   317  ILE317      0.0252
     99  CG1       28.9360   60.5430    0.6450 C.3   317  ILE317      0.0019
    100  CG2       27.8010   58.9440    2.2270 C.3   317  ILE317      0.0019
    101  CD1       29.9340   59.6030   -0.0210 C.3   317  ILE317      0.0001
    102  N         25.8940   59.6750   -2.5350 N.3   324  PRO324     -0.2116
    103  CA        27.2300   59.1180   -2.7880 C.3   324  PRO324      0.1372
    104  C         27.6850   59.2610   -4.2410 C.2   324  PRO324      0.2244
    105  O         28.8940   59.3510   -4.4870 O.2   324  PRO324     -0.2868
    106  CB        27.0770   57.6370   -2.4190 C.3   324  PRO324      0.0268
    107  CG        25.8930   57.5850   -1.5370 C.3   324  PRO324      0.0207
    108  CD        24.9580   58.6540   -2.0330 C.3   324  PRO324      0.0892
    109  N         28.8170   62.7640   -4.7690 N.3   327  ALA327     -0.1231
    110  CA        30.1130   62.8810   -4.1100 C.3   327  ALA327      0.1694
    111  C         31.2200   62.3260   -4.9970 C.2   327  ALA327      0.2591
    112  O         32.2710   62.9510   -5.1470 O.2   327  ALA327     -0.2718
    113  CB        30.0970   62.1850   -2.7500 C.3   327  ALA327      0.0304
    114  N         30.9630   61.1660   -5.6000 N.am  328  LEU328     -0.1980
    115  CA        31.8950   60.5630   -6.5410 C.3   328  LEU328      0.1596
    116  C         32.1860   61.4690   -7.7410 C.2   328  LEU328      0.2287
    117  O         33.3470   61.6570   -8.1120 O.2   328  LEU328     -0.2864
    118  CB        31.3630   59.2210   -7.0130 C.3   328  LEU328      0.0297
    119  CG        32.3270   58.0410   -7.1560 C.3   328  LEU328      0.0022
    120  CD1       31.9320   57.2540   -8.3700 C.3   328  LEU328      0.0001
    121  CD2       33.8030   58.4430   -7.2450 C.3   328  LEU328      0.0001
    122  N         34.2440   64.4400   -6.6790 N.3   331  LEU331     -0.1231
    123  CA        35.6150   63.9510   -6.5760 C.3   331  LEU331      0.1693
    124  C         36.3050   63.8840   -7.9370 C.2   331  LEU331      0.2591
    125  O         37.4880   64.2120   -8.0470 O.2   331  LEU331     -0.2718
    126  CB        35.6230   62.5500   -5.9740 C.3   331  LEU331      0.0284
    127  CG        36.0020   62.2590   -4.5280 C.3   331  LEU331      0.0019
    128  CD1       36.2540   60.7750   -4.4080 C.3   331  LEU331      0.0001
    129  CD2       37.2170   63.0410   -4.0790 C.3   331  LEU331      0.0001
    130  N         35.5660   63.4510   -8.9630 N.am  332  LEU332     -0.1980
    131  CA        36.1350   63.2210  -10.2950 C.3   332  LEU332      0.1596
    132  C         35.9780   64.3970  -11.2600 C.2   332  LEU332      0.2287
    133  O         36.1160   64.2300  -12.4730 O.2   332  LEU332     -0.2864
    134  CB        35.5420   61.9560  -10.9200 C.3   332  LEU332      0.0297
    135  CG        35.6980   60.6410  -10.1580 C.3   332  LEU332      0.0022
    136  CD1       34.8210   59.5830  -10.7830 C.3   332  LEU332      0.0001
    137  CD2       37.1540   60.1850  -10.1020 C.3   332  LEU332      0.0001
    138  N         37.7760   67.2020  -10.9560 N.3   334  CYS334     -0.1235
    139  CA        39.0130   67.9650  -10.8280 C.3   334  CYS334      0.1677
    140  C         39.8720   67.9680  -12.1130 C.2   334  CYS334      0.2270
    141  O         40.8930   68.6550  -12.1780 O.2   334  CYS334     -0.2867
    142  CB        39.8200   67.4000   -9.6590 C.3   334  CYS334      0.0956
    143  SG        40.0260   65.5930   -9.7670 S.3   334  CYS334     -0.0801
    144  N         45.1780   65.0010  -13.8050 N.3   337  GLN337     -0.1245
    145  CA        46.3390   65.4720  -13.0430 C.3   337  GLN337      0.1566
    146  C         47.5200   64.5100  -13.0000 C.2   337  GLN337      0.2260
    147  O         47.4130   63.3440  -13.4010 O.2   337  GLN337     -0.2867
    148  CB        45.9640   65.8810  -11.6110 C.3   337  GLN337      0.0367
    149  CG        44.6010   65.4120  -11.1270 C.3   337  GLN337      0.0905
    150  CD        44.1670   66.1170   -9.8550 C.2   337  GLN337      0.2608
    151  OE1       44.2420   65.5460   -8.7610 O.2   337  GLN337     -0.2717
    152  NE2       43.7130   67.3590   -9.9910 N.am  337  GLN337     -0.0878
@<TRIPOS>BOND
     1   144   145    1
     2   147   146    2
     3   145   146    1
     4   145   148    1
     5   133   132    2
     6   141   140    2
     7   140   139    1
     8   148   149    1
     9   132   131    1
    10   149   150    1
    11   138   139    1
    12   134   131    1
    13   134   135    1
    14   139   142    1
    15   136   135    1
    16   131   130    1
    17   135   137    1
    18   152   150   am
    19   150   151    2
    20   143   142    1
    21   130   124   am
    22    32    31    1
    23   120   119    1
    24   117   116    2
    25   125   124    2
    26   124   123    1
    27    26    25    1
    28    26    29    1
    29    26    27    1
    30    20    19    2
    31    33    34    1
    32    30    29    1
    33    30    31    1
    34   116   115    1
    35    27    28    2
    36   121   119    1
    37    42    39    1
    38   119   118    1
    39    37    34    1
    40    34    35    1
    41   118   115    1
    42    60    59    1
    43    19    18    1
    44   122   123    1
    45   123   126    1
    46   115   114    1
    47    59    61    1
    48    59    58    2
    49    57    58    1
    50    57    56    1
    51   126   127    1
    52    39    38    1
    53    39    40    1
    54    35    36    2
    55    21    18    1
    56    21    22    1
    57   114   111   am
    58    18    17    1
    59    22    24    1
    60    22    23    1
    61    56    55    1
    62   112   111    2
    63   111   110    1
    64    15    14    2
    65   109   110    1
    66    40    41    2
    67    40    43   am
    68   127   128    1
    69   127   129    1
    70   105   104    2
    71   104   103    1
    72   110   113    1
    73    43    44    1
    74    55    52    1
    75    14    13    1
    76    16    13    1
    77    13    12    1
    78    51    52    1
    79    52    53    1
    80    44    47    1
    81    44    45    1
    82   103   102    1
    83   103   106    1
    84   102   108    1
    85     8     7    2
    86   106   107    1
    87    66    67    1
    88    66    63    1
    89    47    48    1
    90    67    68    1
    91    12     7   am
    92   108   107    1
    93    76    74    1
    94    85    83   am
    95    83    84    2
    96    83    82    1
    97    82    81    1
    98    45    46    2
    99     7     6    1
   100    74    75    1
   101    74    73    1
   102    53    54    2
   103    10     9    1
   104    49    48    1
   105    48    50    1
   106    63    64    1
   107    63    62    1
   108    81    78    1
   109    68    62    1
   110    64    69   am
   111    64    65    2
   112    69    70    1
   113     6     9    1
   114     6     5    1
   115     4     3    2
   116    73    70    1
   117     9    11    1
   118    70    71    1
   119   101    99    1
   120    78    77    1
   121    78    79    1
   122    99    98    1
   123     3     2    1
   124    71    72    2
   125    80    79    2
   126    79    86   am
   127     2     1    1
   128    98   100    1
   129    98    95    1
   130    86    87    1
   131    91    93    1
   132    91    90    1
   133    95    94    1
   134    95    96    1
   135    87    90    1
   136    87    88    1
   137    90    92    1
   138    96    97    2
   139    88    89    2
