@<TRIPOS>MOLECULE
tmp/1n1lA00.pdb
 153 148 0 0 0
SMALL
GASTEIGER

@<TRIPOS>ATOM
      1  N          3.2780   16.2490   14.9520 N.3    41  GLN41      -0.1231
      2  CA         4.4770   17.0820   14.8040 C.3    41  GLN41       0.1698
      3  C          5.7370   16.6400   15.5250 C.2    41  GLN41       0.2593
      4  O          5.6950   16.0100   16.5980 O.2    41  GLN41      -0.2718
      5  CB         4.1670   18.4890   15.2560 C.3    41  GLN41       0.0381
      6  CG         3.9400   19.4300   14.1180 C.3    41  GLN41       0.0905
      7  CD         3.1810   20.6380   14.5660 C.2    41  GLN41       0.2608
      8  OE1        2.7370   20.7100   15.7150 O.2    41  GLN41      -0.2717
      9  NE2        3.0440   21.6030   13.6830 N.am   41  GLN41      -0.0878
     10  N          6.8680   17.0090   14.9380 N.am   42  THR42      -0.1939
     11  CA         8.1360   16.6320   15.5200 C.3    42  THR42       0.2028
     12  C          9.1200   17.7940   15.5310 C.2    42  THR42       0.2642
     13  O          9.2440   18.5330   14.5570 O.2    42  THR42      -0.2714
     14  CB         8.6980   15.3310   14.8620 C.3    42  THR42       0.1808
     15  OG1       10.0720   15.1640   15.2390 O.3    42  THR42      -0.2208
     16  CG2        8.7250   15.4470   13.3470 C.3    42  THR42       0.0379
     17  N          9.7900   17.9550   16.6630 N.am   43  PHE43      -0.1973
     18  CA        10.6220   19.1300   16.9150 C.3    43  PHE43       0.1639
     19  C         11.6080   18.8050   18.0230 C.2    43  PHE43       0.2290
     20  O         11.8470   17.6200   18.3200 O.2    43  PHE43      -0.2864
     21  CB         9.7520   20.3500   17.2840 C.3    43  PHE43       0.0560
     22  CG         8.6470   20.0510   18.2930 C.ar   43  PHE43      -0.0200
     23  CD1        7.4430   19.4430   17.8900 C.ar   43  PHE43      -0.0042
     24  CD2        8.8020   20.4030   19.6420 C.ar   43  PHE43      -0.0042
     25  CE1        6.4320   19.1800   18.8250 C.ar   43  PHE43      -0.0003
     26  CE2        7.8020   20.1350   20.5930 C.ar   43  PHE43      -0.0003
     27  CZ         6.6240   19.5210   20.1930 C.ar   43  PHE43      -0.0000
     28  N          9.1270   24.5500   22.8050 N.3    55  VAL55      -0.1245
     29  CA         8.1630   25.5860   22.4350 C.3    55  VAL55       0.1561
     30  C          6.7430   25.1660   22.7270 C.2    55  VAL55       0.2260
     31  O          6.3530   24.0050   22.4710 O.2    55  VAL55      -0.2867
     32  CB         8.2520   25.9340   20.9590 C.3    55  VAL55       0.0252
     33  CG1        9.4170   26.8550   20.7310 C.3    55  VAL55       0.0019
     34  CG2        8.3990   24.6580   20.1220 C.3    55  VAL55       0.0019
     35  N          4.0940   26.3260   21.2060 N.3    57  HIS57      -0.1226
     36  CA         3.3430   26.1440   19.9740 C.3    57  HIS57       0.1752
     37  C          3.5010   24.7410   19.4160 C.2    57  HIS57       0.2596
     38  O          2.8090   24.3690   18.4780 O.2    57  HIS57      -0.2718
     39  CB         3.6620   27.2180   18.9230 C.3    57  HIS57       0.0759
     40  CG         4.9140   26.9700   18.1450 C.ar   57  HIS57       0.0818
     41  ND1        6.1030   27.6130   18.4250 N.ar   57  HIS57      -0.2268
     42  CD2        5.1680   26.1510   17.0910 C.ar   57  HIS57       0.1154
     43  CE1        7.0330   27.2050   17.5780 C.ar   57  HIS57       0.1986
     44  NE2        6.4930   26.3180   16.7600 N.ar   57  HIS57      -0.2212
     45  N          4.4020   23.9440   19.9900 N.am   58  GLY58      -0.1957
     46  CA         4.5040   22.5500   19.5880 C.3    58  GLY58       0.1869
     47  C          3.9970   21.5760   20.6280 C.2    58  GLY58       0.2309
     48  O          3.2210   20.6850   20.3000 O.2    58  GLY58      -0.2863
     49  N         16.5150   38.0140   18.2230 N.3   123  ARG123     -0.1245
     50  CA        16.5880   37.7520   16.7860 C.3   123  ARG123      0.1563
     51  C         18.0270   37.6120   16.3400 C.2   123  ARG123      0.2260
     52  O         18.8970   38.2750   16.8590 O.2   123  ARG123     -0.2867
     53  CB        15.8530   38.8220   15.9550 C.3   123  ARG123      0.0307
     54  CG        16.4470   39.0390   14.5280 C.3   123  ARG123      0.0489
     55  CD        15.5030   38.8570   13.3020 C.3   123  ARG123      0.2205
     56  NE        14.0840   38.6910   13.6460 N.pl3 123  ARG123     -0.0865
     57  CZ        13.0590   39.0810   12.8750 C.cat 123  ARG123      0.5346
     58  NH1       13.2930   39.6630   11.7010 N.pl3 123  ARG123      0.1354
     59  NH2       11.7980   38.8780   13.2710 N.pl3 123  ARG123      0.1354
     60  N         13.7640   26.6940    3.9500 N.3   132  ILE132     -0.1245
     61  CA        12.9290   26.4140    5.1130 C.3   132  ILE132      0.1561
     62  C         12.7070   24.9090    5.4290 C.2   132  ILE132      0.2260
     63  O         12.6790   24.5230    6.5920 O.2   132  ILE132     -0.2867
     64  CB        11.5920   27.2260    5.0020 C.3   132  ILE132      0.0252
     65  CG1       11.1520   27.7590    6.3740 C.3   132  ILE132      0.0019
     66  CG2       10.4870   26.4650    4.2120 C.3   132  ILE132      0.0019
     67  CD1       10.7150   26.7030    7.3660 C.3   132  ILE132      0.0001
     68  N         15.2300   23.7150    8.0350 N.3   135  LEU135     -0.1231
     69  CA        15.0750   24.0630    9.4400 C.3   135  LEU135      0.1693
     70  C         13.8090   23.4800   10.0960 C.2   135  LEU135      0.2592
     71  O         13.5980   23.5770   11.3030 O.2   135  LEU135     -0.2718
     72  CB        15.1180   25.5740    9.6050 C.3   135  LEU135      0.0284
     73  CG        16.4480   26.2900    9.3710 C.3   135  LEU135      0.0019
     74  CD1       16.1850   27.7580    9.4820 C.3   135  LEU135      0.0001
     75  CD2       17.5580   25.8840   10.3650 C.3   135  LEU135      0.0001
     76  N         12.9780   22.8450    9.3030 N.am  136  LYS136     -0.1966
     77  CA        11.7460   22.3120    9.8300 C.3   136  LYS136      0.1728
     78  C         12.0260   21.3110   10.9520 C.2   136  LYS136      0.2617
     79  O         12.8820   20.4420   10.8260 O.2   136  LYS136     -0.2715
     80  CB        10.9740   21.6420    8.7060 C.3   136  LYS136      0.0311
     81  CG         9.4870   21.9860    8.6720 C.3   136  LYS136      0.0038
     82  CD         8.7060   20.8110    8.0610 C.3   136  LYS136      0.0206
     83  CE         8.7920   19.5320    8.9230 C.3   136  LYS136      0.1093
     84  NZ         7.5160   18.7730    8.7810 N.3   136  LYS136     -0.1314
     85  N         11.3000   21.4450   12.0570 N.am  137  GLY137     -0.1940
     86  CA        11.4900   20.5370   13.1740 C.3   137  GLY137      0.2014
     87  C         12.6780   20.8700   14.0580 C.2   137  GLY137      0.2640
     88  O         12.9990   20.1170   14.9700 O.2   137  GLY137     -0.2714
     89  N         13.3230   22.0020   13.7940 N.am  138  SER138     -0.1935
     90  CA        14.4120   22.4590   14.6350 C.3   138  SER138      0.2055
     91  C         13.9700   23.3820   15.7660 C.2   138  SER138      0.2643
     92  O         14.7110   23.5740   16.7100 O.2   138  SER138     -0.2714
     93  CB        15.5180   23.0860   13.7900 C.3   138  SER138      0.2130
     94  OG        16.2850   22.0730   13.1740 O.3   138  SER138     -0.2179
     95  N         12.7770   23.9540   15.6820 N.am  139  SER139     -0.1949
     96  CA        12.1860   24.6990   16.8060 C.3   139  SER139      0.1924
     97  C         12.2850   23.9650   18.1330 C.2   139  SER139      0.2314
     98  O         11.9660   22.7760   18.1970 O.2   139  SER139     -0.2863
     99  CB        10.7120   24.9330   16.5510 C.3   139  SER139      0.2116
    100  OG        10.5640   25.7230   15.3850 O.3   139  SER139     -0.2180
    101  N         15.6550   28.2230   19.5820 N.3   154  PHE154     -0.1227
    102  CA        15.0590   28.5510   18.2950 C.3   154  PHE154      0.1736
    103  C         13.5150   28.5090   18.4080 C.2   154  PHE154      0.2595
    104  O         12.9310   27.4730   18.7800 O.2   154  PHE154     -0.2718
    105  CB        15.6610   27.5620   17.2780 C.3   154  PHE154      0.0547
    106  CG        15.1290   27.6590   15.8850 C.ar  154  PHE154     -0.0202
    107  CD1       14.6950   28.8530   15.3440 C.ar  154  PHE154     -0.0042
    108  CD2       15.1000   26.5240   15.0870 C.ar  154  PHE154     -0.0042
    109  CE1       14.1990   28.9000   14.0350 C.ar  154  PHE154     -0.0003
    110  CE2       14.6160   26.5700   13.7660 C.ar  154  PHE154     -0.0003
    111  CZ        14.1640   27.7550   13.2460 C.ar  154  PHE154     -0.0000
    112  N         12.8750   29.6540   18.1330 N.am  155  ARG155     -0.1966
    113  CA        11.4150   29.8330   18.2720 C.3   155  ARG155      0.1729
    114  C         10.6630   29.8630   16.9520 C.2   155  ARG155      0.2616
    115  O          9.6120   29.2270   16.7990 O.2   155  ARG155     -0.2715
    116  CB        11.1150   31.1440   18.9850 C.3   155  ARG155      0.0348
    117  CG         9.8450   31.1380   19.7620 C.3   155  ARG155      0.0492
    118  CD         9.2030   32.4860   19.8970 C.3   155  ARG155      0.2205
    119  NE         7.9800   32.4690   19.0990 N.pl3 155  ARG155     -0.0865
    120  CZ         7.6930   33.3390   18.1360 C.cat 155  ARG155      0.5346
    121  NH1        8.5270   34.3380   17.8530 N.pl3 155  ARG155      0.1354
    122  NH2        6.5560   33.2120   17.4610 N.pl3 155  ARG155      0.1354
    123  N         11.1910   30.6320   16.0080 N.am  156  ALA156     -0.1963
    124  CA        10.5630   30.7810   14.7030 C.3   156  ALA156      0.1728
    125  C         11.5580   31.2250   13.6430 C.2   156  ALA156      0.2616
    126  O         12.5790   31.9080   13.9270 O.2   156  ALA156     -0.2715
    127  CB         9.4060   31.7790   14.7780 C.3   156  ALA156      0.0334
    128  N         11.2330   30.8450   12.4150 N.am  157  ALA157     -0.1963
    129  CA        12.0320   31.2330   11.2730 C.3   157  ALA157      0.1728
    130  C         11.3360   32.3000   10.4440 C.2   157  ALA157      0.2616
    131  O         10.1370   32.1950   10.1520 O.2   157  ALA157     -0.2715
    132  CB        12.3280   30.0330   10.4310 C.3   157  ALA157      0.0334
    133  N         12.1030   33.3360   10.0900 N.am  158  VAL158     -0.1963
    134  CA        11.6670   34.3860    9.1600 C.3   158  VAL158      0.1727
    135  C         11.9600   33.9430    7.7350 C.2   158  VAL158      0.2616
    136  O         13.1100   33.9850    7.2910 O.2   158  VAL158     -0.2715
    137  CB        12.4160   35.7360    9.3960 C.3   158  VAL158      0.0290
    138  CG1       11.7910   36.8560    8.5410 C.3   158  VAL158      0.0023
    139  CG2       12.4600   36.1130   10.8840 C.3   158  VAL158      0.0023
    140  N         10.9150   33.5230    7.0310 N.am  159  CYS159     -0.1968
    141  CA        11.0720   32.9710    5.6920 C.3   159  CYS159      0.1712
    142  C         10.4170   33.8500    4.5970 C.2   159  CYS159      0.2296
    143  O          9.3140   34.3750    4.7790 O.2   159  CYS159     -0.2864
    144  CB        10.5750   31.5140    5.6700 C.3   159  CYS159      0.0983
    145  SG         9.1570   31.1380    4.5900 S.3   159  CYS159     -0.0798
    146  N         13.9580   33.9500   15.0560 N.3   168  ASP168     -0.1239
    147  CA        13.6050   34.5080   16.3610 C.3   168  ASP168      0.1674
    148  C         13.8520   33.4070   17.3660 C.2   168  ASP168      0.2266
    149  O         13.5100   32.2560   17.0970 O.2   168  ASP168     -0.2867
    150  CB        12.1120   34.8690   16.4120 C.3   168  ASP168      0.1410
    151  CG        11.7470   36.0380   15.4890 C.2   168  ASP168      0.3668
    152  OD1       12.5740   36.9810   15.3530 O.co2 168  ASP168     -0.2456
    153  OD2       10.6510   36.0920   14.8680 O.co2 168  ASP168     -0.2456
@<TRIPOS>BOND
     1    60    61    1
     2    66    64    1
     3   145   144    1
     4   142   143    2
     5   142   141    1
     6    64    61    1
     7    64    65    1
     8    61    62    1
     9    62    63    2
    10   144   141    1
    11   141   140    1
    12    65    67    1
    13   140   135   am
    14   136   135    2
    15   135   134    1
    16    68    69    1
    17    82    81    1
    18    82    83    1
    19   138   137    1
    20    81    80    1
    21    80    77    1
    22    84    83    1
    23   134   137    1
    24   134   133    1
    25    76    77    1
    26    76    70   am
    27    73    74    1
    28    73    72    1
    29    73    75    1
    30   137   139    1
    31    69    72    1
    32    69    70    1
    33    77    78    1
    34   133   130   am
    35    70    71    2
    36   131   130    2
    37   132   129    1
    38   130   129    1
    39    79    78    2
    40    78    85   am
    41   129   128    1
    42    58    57    1
    43    85    86    1
    44   128   125   am
    45    57    59    1
    46    57    56    2
    47    86    87    1
    48    94    93    1
    49   111   110   ar
    50   111   109   ar
    51    55    56    1
    52    55    54    1
    53    16    14    1
    54   125   126    2
    55   125   124    1
    56     9     7   am
    57   110   108   ar
    58    93    90    1
    59    89    87   am
    60    89    90    1
    61   109   107   ar
    62    87    88    2
    63     6     7    1
    64     6     5    1
    65    54    53    1
    66    13    12    2
    67     7     8    2
    68    90    91    1
    69   124   127    1
    70   124   123    1
    71     2     1    1
    72     2     5    1
    73     2     3    1
    74    14    15    1
    75    14    11    1
    76   153   151   ar
    77    10    11    1
    78    10     3   am
    79   146   147    1
    80   108   106   ar
    81   107   106   ar
    82   152   151   ar
    83   100    99    1
    84   151   150    1
    85    11    12    1
    86     3     4    2
    87    12    17   am
    88    95    91   am
    89    95    96    1
    90    91    92    2
    91   106   105    1
    92    53    50    1
    93   123   114   am
    94    51    50    1
    95    51    52    2
    96   147   150    1
    97   147   148    1
    98    99    96    1
    99    17    18    1
   100    44    42   ar
   101    44    43   ar
   102    50    49    1
   103   115   114    2
   104    96    97    1
   105    18    21    1
   106    18    19    1
   107   114   113    1
   108    42    40   ar
   109   149   148    2
   110   105   102    1
   111    21    22    1
   112   122   120    1
   113    43    41   ar
   114   121   120    1
   115    23    22   ar
   116    23    25   ar
   117    19    20    2
   118   112   113    1
   119   112   103   am
   120    97    98    2
   121   120   119    2
   122    40    41   ar
   123    40    39    1
   124   113   116    1
   125    22    24   ar
   126   102   103    1
   127   102   101    1
   128   103   104    2
   129    38    37    2
   130    25    27   ar
   131    39    36    1
   132   116   117    1
   133   119   118    1
   134    37    36    1
   135    37    45   am
   136    46    45    1
   137    46    47    1
   138    24    26   ar
   139   117   118    1
   140    36    35    1
   141    34    32    1
   142    27    26   ar
   143    48    47    2
   144    33    32    1
   145    32    29    1
   146    29    30    1
   147    29    28    1
   148    31    30    2
