@<TRIPOS>MOLECULE
tmp/1n1mA05.pdb
 162 158 0 0 0
SMALL
GASTEIGER

@<TRIPOS>ATOM
      1  N         81.6530   63.7570   98.6520 N.3    87  ARG87      -0.1245
      2  CA        80.6840   64.2230   99.6280 C.3    87  ARG87       0.1563
      3  C         79.5230   63.2510   99.8430 C.2    87  ARG87       0.2260
      4  O         79.1450   62.9670  100.9820 O.2    87  ARG87      -0.2867
      5  CB        80.1350   65.5780   99.2000 C.3    87  ARG87       0.0307
      6  CG        78.9040   66.0120   99.9580 C.3    87  ARG87       0.0489
      7  CD        79.2230   67.1520  100.8810 C.3    87  ARG87       0.2205
      8  NE        79.9190   68.2330  100.1860 N.pl3  87  ARG87      -0.0865
      9  CZ        80.3100   69.3440  100.7890 C.cat  87  ARG87       0.5346
     10  NH1       80.0610   69.5000  102.0740 N.pl3  87  ARG87       0.1354
     11  NH2       80.9570   70.2790  100.1210 N.pl3  87  ARG87       0.1354
     12  N         78.7200   67.1890   93.4140 N.3   167  GLU167     -0.1231
     13  CA        78.9100   68.2790   94.3510 C.3   167  GLU167      0.1699
     14  C         78.1350   69.5460   94.0230 C.2   167  GLU167      0.2592
     15  O         77.4990   70.1350   94.8980 O.2   167  GLU167     -0.2718
     16  CB        80.4050   68.6060   94.4150 C.3   167  GLU167      0.0402
     17  CG        80.8050   69.7640   95.2920 C.3   167  GLU167      0.1161
     18  CD        80.5050   69.5330   96.7510 C.2   167  GLU167      0.3649
     19  OE1       80.5070   68.3650   97.1980 O.co2 167  GLU167     -0.2457
     20  OE2       80.2880   70.5360   97.4650 O.co2 167  GLU167     -0.2457
     21  N         78.1580   69.9520   92.7590 N.am  168  GLU168     -0.1979
     22  CA        77.5270   71.2060   92.3900 C.3   168  GLU168      0.1602
     23  C         76.0830   71.2660   91.8780 C.2   168  GLU168      0.2287
     24  O         75.3190   72.1180   92.3290 O.2   168  GLU168     -0.2864
     25  CB        78.4310   71.9540   91.3980 C.3   168  GLU168      0.0415
     26  CG        79.8840   72.1720   91.8480 C.3   168  GLU168      0.1163
     27  CD        80.0360   72.7440   93.2590 C.2   168  GLU168      0.3649
     28  OE1       79.0660   73.3120   93.8160 O.co2 168  GLU168     -0.2457
     29  OE2       81.1510   72.6360   93.8130 O.co2 168  GLU168     -0.2457
     30  N         70.9470   77.8670   94.6310 N.3   319  PHE319     -0.1227
     31  CA        72.1400   77.1260   94.2260 C.3   319  PHE319      0.1736
     32  C         71.8210   76.3650   92.9560 C.2   319  PHE319      0.2595
     33  O         72.7200   75.8460   92.2900 O.2   319  PHE319     -0.2718
     34  CB        72.5550   76.1370   95.3090 C.3   319  PHE319      0.0547
     35  CG        73.2360   76.7760   96.4590 C.ar  319  PHE319     -0.0202
     36  CD1       74.5500   77.2100   96.3450 C.ar  319  PHE319     -0.0042
     37  CD2       72.5620   76.9850   97.6480 C.ar  319  PHE319     -0.0042
     38  CE1       75.1840   77.8450   97.4070 C.ar  319  PHE319     -0.0003
     39  CE2       73.1840   77.6200   98.7160 C.ar  319  PHE319     -0.0003
     40  CZ        74.4940   78.0510   98.5970 C.ar  319  PHE319     -0.0000
     41  N         70.5290   76.3040   92.6390 N.am  320  ARG320     -0.1980
     42  CA        70.0200   75.6110   91.4580 C.3   320  ARG320      0.1597
     43  C         68.5210   75.8810   91.3830 C.2   320  ARG320      0.2287
     44  O         67.8980   76.2070   92.3980 O.2   320  ARG320     -0.2864
     45  CB        70.2510   74.1060   91.5880 C.3   320  ARG320      0.0334
     46  CG        69.4910   73.4660   92.7530 C.3   320  ARG320      0.0492
     47  CD        69.8210   71.9920   92.8900 C.3   320  ARG320      0.2205
     48  NE        71.2500   71.8080   93.1310 N.pl3 320  ARG320     -0.0865
     49  CZ        71.8550   72.0500   94.2930 C.cat 320  ARG320      0.5346
     50  NH1       71.1510   72.4750   95.3400 N.pl3 320  ARG320      0.1354
     51  NH2       73.1750   71.9080   94.3970 N.pl3 320  ARG320      0.1354
     52  N         81.8930   82.6880  107.0760 N.3   509  TYR509     -0.1241
     53  CA        81.6890   81.7810  105.9560 C.3   509  TYR509      0.1605
     54  C         81.3770   82.7550  104.8230 C.2   509  TYR509      0.2264
     55  O         82.2090   82.9850  103.9440 O.2   509  TYR509     -0.2867
     56  CB        80.4950   80.8510  106.1920 C.3   509  TYR509      0.0534
     57  CG        80.1970   79.9760  104.9940 C.ar  509  TYR509     -0.0201
     58  CD1       81.1430   79.0650  104.5190 C.ar  509  TYR509     -0.0009
     59  CD2       78.9950   80.0920  104.3080 C.ar  509  TYR509     -0.0009
     60  CE1       80.8920   78.2980  103.3810 C.ar  509  TYR509      0.0417
     61  CE2       78.7330   79.3340  103.1790 C.ar  509  TYR509      0.0417
     62  CZ        79.6830   78.4440  102.7180 C.ar  509  TYR509      0.1957
     63  OH        79.4310   77.7150  101.5860 O.3   509  TYR509     -0.2866
     64  N         86.8090   76.7970  104.1980 N.3   592  SER592     -0.1202
     65  CA        86.2830   76.7530  102.8400 C.3   592  SER592      0.2020
     66  C         86.0740   78.1760  102.3070 C.2   592  SER592      0.2618
     67  O         87.0030   78.9800  102.3130 O.2   592  SER592     -0.2717
     68  CB        84.9690   75.9720  102.8510 C.3   592  SER592      0.2103
     69  OG        84.6580   75.4940  101.5610 O.3   592  SER592     -0.2182
     70  N         84.8700   78.4990  101.8440 N.am  593  TYR593     -0.1975
     71  CA        84.6330   79.8460  101.3390 C.3   593  TYR593      0.1639
     72  C         84.9470   80.8450  102.4500 C.2   593  TYR593      0.2290
     73  O         85.3280   81.9830  102.1850 O.2   593  TYR593     -0.2864
     74  CB        83.1870   80.0020  100.8780 C.3   593  TYR593      0.0560
     75  CG        82.9550   81.2270  100.0230 C.ar  593  TYR593     -0.0198
     76  CD1       82.9740   82.5070  100.5780 C.ar  593  TYR593     -0.0009
     77  CD2       82.7330   81.1080   98.6560 C.ar  593  TYR593     -0.0009
     78  CE1       82.7790   83.6330   99.7960 C.ar  593  TYR593      0.0417
     79  CE2       82.5340   82.2330   97.8650 C.ar  593  TYR593      0.0417
     80  CZ        82.5570   83.4900   98.4420 C.ar  593  TYR593      0.1957
     81  OH        82.3380   84.5930   97.6640 O.3   593  TYR593     -0.2866
     82  N         89.8330   79.0210   99.3500 N.3   618  VAL618     -0.1245
     83  CA        89.9000   79.2000   97.9090 C.3   618  VAL618      0.1561
     84  C         90.9040   80.3390   97.8100 C.2   618  VAL618      0.2260
     85  O         90.8630   81.2510   98.6320 O.2   618  VAL618     -0.2867
     86  CB        88.5530   79.6910   97.3290 C.3   618  VAL618      0.0252
     87  CG1       88.7310   80.1590   95.8900 C.3   618  VAL618      0.0019
     88  CG2       87.5380   78.5810   97.3820 C.3   618  VAL618      0.0019
     89  N         89.6820   81.9910   92.1090 N.3   621  TRP621     -0.1241
     90  CA        88.5290   81.3500   91.5130 C.3   621  TRP621      0.1605
     91  C         88.7420   80.4620   90.3040 C.2   621  TRP621      0.2264
     92  O         87.9780   79.5180   90.0890 O.2   621  TRP621     -0.2867
     93  CB        87.4490   82.4010   91.2460 C.3   621  TRP621      0.0550
     94  CG        86.8490   82.8390   92.5470 C.ar  621  TRP621      0.0003
     95  CD1       86.9460   84.0700   93.1340 C.ar  621  TRP621      0.0946
     96  CD2       86.1990   81.9910   93.5010 C.ar  621  TRP621      0.0152
     97  NE1       86.4080   84.0330   94.4020 N.ar  621  TRP621     -0.2442
     98  CE2       85.9420   82.7690   94.6480 C.ar  621  TRP621      0.0810
     99  CE3       85.8160   80.6450   93.4960 C.ar  621  TRP621      0.0012
    100  CZ2       85.3230   82.2470   95.7730 C.ar  621  TRP621      0.0191
    101  CZ3       85.2040   80.1300   94.6120 C.ar  621  TRP621      0.0001
    102  CH2       84.9620   80.9260   95.7360 C.ar  621  TRP621      0.0015
    103  N         88.7730   76.8170   91.2440 N.3   624  TYR624     -0.1241
    104  CA        87.6010   76.0890   91.6940 C.3   624  TYR624      0.1605
    105  C         86.8090   75.5660   90.5010 C.2   624  TYR624      0.2264
    106  O         87.0190   76.0130   89.3670 O.2   624  TYR624     -0.2867
    107  CB        86.7130   76.9500   92.5910 C.3   624  TYR624      0.0534
    108  CG        85.8360   76.0850   93.4520 C.ar  624  TYR624     -0.0201
    109  CD1       86.3980   75.1690   94.3270 C.ar  624  TYR624     -0.0009
    110  CD2       84.4530   76.1150   93.3310 C.ar  624  TYR624     -0.0009
    111  CE1       85.6140   74.2990   95.0560 C.ar  624  TYR624      0.0417
    112  CE2       83.6530   75.2440   94.0580 C.ar  624  TYR624      0.0417
    113  CZ        84.2410   74.3360   94.9180 C.ar  624  TYR624      0.1957
    114  OH        83.4610   73.4690   95.6430 O.3   624  TYR624     -0.2866
    115  N         80.0230   75.7980   90.2410 N.3   628  TYR628     -0.1241
    116  CA        79.8490   76.7230   91.3440 C.3   628  TYR628      0.1605
    117  C         80.4100   78.1070   91.0140 C.2   628  TYR628      0.2264
    118  O         79.7460   79.1300   91.2080 O.2   628  TYR628     -0.2867
    119  CB        80.5320   76.1830   92.5990 C.3   628  TYR628      0.0534
    120  CG        80.4170   77.0930   93.8080 C.ar  628  TYR628     -0.0201
    121  CD1       81.2430   78.2060   93.9520 C.ar  628  TYR628     -0.0009
    122  CD2       79.4810   76.8410   94.8030 C.ar  628  TYR628     -0.0009
    123  CE1       81.1380   79.0390   95.0560 C.ar  628  TYR628      0.0417
    124  CE2       79.3680   77.6620   95.9020 C.ar  628  TYR628      0.0417
    125  CZ        80.1960   78.7600   96.0280 C.ar  628  TYR628      0.1957
    126  OH        80.0900   79.5760   97.1350 O.3   628  TYR628     -0.2866
    127  N         78.6250   80.3070   88.1950 N.3   631  ARG631     -0.1245
    128  CA        77.3080   80.7380   88.6400 C.3   631  ARG631      0.1563
    129  C         77.3220   82.1620   89.1840 C.2   631  ARG631      0.2260
    130  O         76.4270   82.9620   88.9100 O.2   631  ARG631     -0.2867
    131  CB        76.7850   79.7750   89.7100 C.3   631  ARG631      0.0307
    132  CG        75.4280   80.1500   90.2760 C.3   631  ARG631      0.0489
    133  CD        74.6960   78.9230   90.7660 C.3   631  ARG631      0.2205
    134  NE        75.3340   78.3070   91.9210 N.pl3 631  ARG631     -0.0865
    135  CZ        75.6070   77.0100   92.0190 C.cat 631  ARG631      0.5346
    136  NH1       75.3070   76.1800   91.0250 N.pl3 631  ARG631      0.1354
    137  NH2       76.1630   76.5390   93.1200 N.pl3 631  ARG631      0.1354
    138  N         88.0070   68.8490   96.7880 N.3   672  ASN672     -0.1225
    139  CA        87.0660   69.9480   96.5820 C.3   672  ASN672      0.1785
    140  C         87.8640   71.2170   96.3090 C.2   672  ASN672      0.2597
    141  O         87.9040   71.7250   95.1800 O.2   672  ASN672     -0.2718
    142  CB        86.2050   70.1170   97.8350 C.3   672  ASN672      0.1169
    143  CG        84.9980   71.0010   97.6020 C.2   672  ASN672      0.2627
    144  OD1       84.9280   71.7420   96.6170 O.2   672  ASN672     -0.2716
    145  ND2       84.0390   70.9300   98.5160 N.am  672  ASN672     -0.0877
    146  N         88.4800   71.7410   97.3590 N.am  673  VAL673     -0.1980
    147  CA        89.3310   72.9030   97.2160 C.3   673  VAL673      0.1595
    148  C         90.7430   72.2880   97.2160 C.2   673  VAL673      0.2287
    149  O         91.3110   71.9620   98.2570 O.2   673  VAL673     -0.2864
    150  CB        89.1540   73.8710   98.3820 C.3   673  VAL673      0.0276
    151  CG1       90.0170   75.1080   98.1500 C.3   673  VAL673      0.0022
    152  CG2       87.6790   74.2650   98.5030 C.3   673  VAL673      0.0022
    153  N         88.4510   67.8820  102.1810 N.3   702  HIS702     -0.1241
    154  CA        87.8550   69.1470  102.5610 C.3   702  HIS702      0.1621
    155  C         87.2540   69.1960  103.9520 C.2   702  HIS702      0.2264
    156  O         87.1440   70.2680  104.5340 O.2   702  HIS702     -0.2867
    157  CB        86.8140   69.5900  101.5360 C.3   702  HIS702      0.0745
    158  CG        86.5340   71.0580  101.5800 C.ar  702  HIS702      0.0817
    159  ND1       87.4930   72.0050  101.2840 N.ar  702  HIS702     -0.2268
    160  CD2       85.4210   71.7460  101.9210 C.ar  702  HIS702      0.1154
    161  CE1       86.9820   73.2120  101.4410 C.ar  702  HIS702      0.1986
    162  NE2       85.7250   73.0830  101.8270 N.ar  702  HIS702     -0.2212
@<TRIPOS>BOND
     1   127   128    1
     2   128   129    1
     3   128   131    1
     4   130   129    2
     5   106   105    2
     6   131   132    1
     7    92    91    2
     8   115   116    1
     9   132   133    1
    10    91    90    1
    11   105   104    1
    12   133   134    1
    13   117   118    2
    14   117   116    1
    15   136   135    1
    16   103   104    1
    17    93    90    1
    18    93    94    1
    19   116   119    1
    20    43    42    1
    21    43    44    2
    22    25    26    1
    23    25    22    1
    24    42    45    1
    25    42    41    1
    26    90    89    1
    27    45    46    1
    28   104   107    1
    29    26    27    1
    30    23    24    2
    31    23    22    1
    32   134   135    2
    33   135   137    1
    34    33    32    2
    35    22    21    1
    36    94    95   ar
    37    94    96   ar
    38   107   108    1
    39   119   120    1
    40    41    32   am
    41    46    47    1
    42    21    14   am
    43    47    48    1
    44    32    31    1
    45    48    49    2
    46    95    97   ar
    47    27    29   ar
    48    27    28   ar
    49   110   108   ar
    50   110   112   ar
    51    12    13    1
    52   108   109   ar
    53    99    96   ar
    54    99   101   ar
    55    96    98   ar
    56   120   121   ar
    57   120   122   ar
    58   121   123   ar
    59    14    13    1
    60    14    15    2
    61   112   113   ar
    62    31    30    1
    63    31    34    1
    64    49    51    1
    65    49    50    1
    66   109   111   ar
    67    13    16    1
    68    97    98   ar
    69    16    17    1
    70   101   102   ar
    71    98   100   ar
    72   122   124   ar
    73   113   111   ar
    74   113   114    1
    75   123   125   ar
    76   141   140    2
    77    17    18    1
    78    34    35    1
    79   102   100   ar
    80    87    86    1
    81   124   125   ar
    82   125   126    1
    83   140   139    1
    84   140   146   am
    85    36    35   ar
    86    36    38   ar
    87    35    37   ar
    88   139   138    1
    89   139   142    1
    90   144   143    2
    91    18    19   ar
    92    18    20   ar
    93   147   148    1
    94   147   146    1
    95   147   150    1
    96   148   149    2
    97    86    88    1
    98    86    83    1
    99    38    40   ar
   100   143   142    1
   101   143   145   am
   102    37    39   ar
   103    81    80    1
   104    84    83    1
   105    84    85    2
   106    79    80   ar
   107    79    77   ar
   108    83    82    1
   109   151   150    1
   110   150   152    1
   111    80    78   ar
   112    40    39   ar
   113     1     2    1
   114    77    75   ar
   115     5     2    1
   116     5     6    1
   117     2     3    1
   118    78    76   ar
   119     3     4    2
   120     6     7    1
   121    75    76   ar
   122    75    74    1
   123    11     9    1
   124     8     9    2
   125     8     7    1
   126     9    10    1
   127    74    71    1
   128   159   161   ar
   129   159   158   ar
   130    71    70    1
   131    71    72    1
   132   161   162   ar
   133   157   158    1
   134   157   154    1
   135    69    68    1
   136   158   160   ar
   137    63    62    1
   138   162   160   ar
   139    70    66   am
   140   153   154    1
   141    73    72    2
   142    66    67    2
   143    66    65    1
   144   154   155    1
   145    62    61   ar
   146    62    60   ar
   147    65    68    1
   148    65    64    1
   149    61    59   ar
   150    60    58   ar
   151    55    54    2
   152   155   156    2
   153    59    57   ar
   154    58    57   ar
   155    54    53    1
   156    57    56    1
   157    53    56    1
   158    53    52    1
