@<TRIPOS>MOLECULE
tmp/1n2gA00.pdb
 179 175 0 0 0
SMALL
GASTEIGER

@<TRIPOS>ATOM
      1  N         26.0750   36.2030   46.5180 N.3    36  PRO36      -0.2102
      2  CA        27.2390   36.4300   47.3840 C.3    36  PRO36       0.1504
      3  C         28.4490   36.8150   46.5610 C.2    36  PRO36       0.2576
      4  O         28.7960   36.1090   45.6120 O.2    36  PRO36      -0.2718
      5  CB        27.4580   35.0660   48.0540 C.3    36  PRO36       0.0282
      6  CG        26.1210   34.3890   47.9220 C.3    36  PRO36       0.0208
      7  CD        25.7110   34.7750   46.5280 C.3    36  PRO36       0.0893
      8  N         29.0900   37.9270   46.9160 N.am   37  THR37      -0.1939
      9  CA        30.2920   38.3690   46.1990 C.3    37  THR37       0.2028
     10  C         31.3090   38.9260   47.2040 C.2    37  THR37       0.2642
     11  O         31.0020   39.1160   48.3840 O.2    37  THR37      -0.2714
     12  CB        29.9920   39.5090   45.2040 C.3    37  THR37       0.1808
     13  OG1       29.9810   40.7680   45.9000 O.3    37  THR37      -0.2208
     14  CG2       28.6280   39.2890   44.5450 C.3    37  THR37       0.0379
     15  N         32.5260   39.1430   46.7240 N.am   38  MET38      -0.1962
     16  CA        33.5690   39.7430   47.5490 C.3    38  MET38       0.1736
     17  C         33.8960   41.1130   46.9470 C.2    38  MET38       0.2617
     18  O         35.0130   41.6200   47.0680 O.2    38  MET38      -0.2715
     19  CB        34.8090   38.8470   47.5810 C.3    38  MET38       0.0427
     20  CG        34.5250   37.4800   48.1950 C.3    38  MET38       0.0599
     21  SD        35.8410   36.8210   49.2670 S.3    38  MET38      -0.1393
     22  CE        37.0970   36.5220   48.0440 C.3    38  MET38       0.0692
     23  N         32.9040   41.7100   46.2950 N.am   39  GLY39      -0.1955
     24  CA        33.0970   43.0250   45.6910 C.3    39  GLY39       0.1869
     25  C         33.9590   43.0570   44.4350 C.2    39  GLY39       0.2309
     26  O         34.2590   42.0140   43.8590 O.2    39  GLY39      -0.2863
     27  N         32.3950   42.9590   38.2900 N.3    42  HIS42      -0.1241
     28  CA        32.6040   43.0840   36.8570 C.3    42  HIS42       0.1621
     29  C         31.4400   42.3850   36.1420 C.2    42  HIS42       0.2264
     30  O         30.5040   41.8940   36.7880 O.2    42  HIS42      -0.2867
     31  CB        33.9580   42.4850   36.4540 C.3    42  HIS42       0.0745
     32  CG        34.1620   41.0760   36.9120 C.ar   42  HIS42       0.0817
     33  ND1       33.4040   40.0250   36.4490 N.ar   42  HIS42      -0.2268
     34  CD2       35.0600   40.5420   37.7750 C.ar   42  HIS42       0.1154
     35  CE1       33.8240   38.9010   37.0020 C.ar   42  HIS42       0.1986
     36  NE2       34.8300   39.1880   37.8100 N.ar   42  HIS42      -0.2212
     37  N         31.0040   39.5780   34.9570 N.3    44  GLY44      -0.1210
     38  CA        30.7060   38.2330   35.4250 C.3    44  GLY44       0.1956
     39  C         29.7160   38.2920   36.5890 C.2    44  GLY44       0.2611
     40  O         28.7440   37.5300   36.6420 O.2    44  GLY44      -0.2717
     41  N         29.9560   39.1950   37.5340 N.am   45  HIS45      -0.1975
     42  CA        29.0470   39.3390   38.6750 C.3    45  HIS45       0.1656
     43  C         27.6840   39.8080   38.1840 C.2    45  HIS45       0.2291
     44  O         26.6500   39.3760   38.6930 O.2    45  HIS45      -0.2864
     45  CB        29.5460   40.3860   39.6800 C.3    45  HIS45       0.0771
     46  CG        30.8670   40.0610   40.2990 C.ar   45  HIS45       0.0820
     47  ND1       32.0590   40.4890   39.7630 N.ar   45  HIS45      -0.2267
     48  CD2       31.1840   39.3580   41.4120 C.ar   45  HIS45       0.1154
     49  CE1       33.0550   40.0700   40.5200 C.ar   45  HIS45       0.1986
     50  NE2       32.5520   39.3800   41.5280 N.ar   45  HIS45      -0.2212
     51  N         25.2420   37.1820   37.2410 N.3    48  LEU48      -0.1245
     52  CA        24.5810   36.5820   38.3980 C.3    48  LEU48       0.1561
     53  C         23.4260   37.4730   38.8440 C.2    48  LEU48       0.2260
     54  O         22.3150   37.0040   39.1060 O.2    48  LEU48      -0.2867
     55  CB        25.5660   36.4170   39.5650 C.3    48  LEU48       0.0270
     56  CG        26.3770   35.1090   39.5400 C.3    48  LEU48       0.0019
     57  CD1       27.1780   35.0210   38.2810 C.3    48  LEU48       0.0001
     58  CD2       27.3100   35.0360   40.7670 C.3    48  LEU48       0.0001
     59  N         38.4570   32.7080   54.1380 N.3    70  GLN70      -0.1245
     60  CA        38.7940   31.8900   52.9800 C.3    70  GLN70       0.1566
     61  C         40.1430   32.2590   52.3720 C.2    70  GLN70       0.2260
     62  O         40.5120   31.7730   51.2980 O.2    70  GLN70      -0.2867
     63  CB        37.6830   31.9560   51.9320 C.3    70  GLN70       0.0367
     64  CG        37.4260   33.3440   51.3400 C.3    70  GLN70       0.0905
     65  CD        36.1490   33.3780   50.5160 C.2    70  GLN70       0.2608
     66  OE1       35.0470   33.3440   51.0700 O.2    70  GLN70      -0.2717
     67  NE2       36.2900   33.4190   49.1850 N.am   70  GLN70      -0.0878
     68  N         43.6070   41.6020   47.9740 N.3    80  TYR80      -0.1228
     69  CA        42.3310   41.5120   47.2660 C.3    80  TYR80       0.1721
     70  C         41.8190   42.8830   46.8440 C.2    80  TYR80       0.2437
     71  O         41.7370   43.8050   47.6500 O.2    80  TYR80      -0.2733
     72  CB        41.2410   40.8290   48.0970 C.3    80  TYR80       0.0547
     73  CG        40.1470   40.2920   47.1950 C.ar   80  TYR80      -0.0200
     74  CD1       40.3660   39.1460   46.4270 C.ar   80  TYR80      -0.0009
     75  CD2       38.9380   40.9650   47.0400 C.ar   80  TYR80      -0.0009
     76  CE1       39.4030   38.6860   45.5180 C.ar   80  TYR80       0.0417
     77  CE2       37.9690   40.5120   46.1320 C.ar   80  TYR80       0.0417
     78  CZ        38.2150   39.3780   45.3800 C.ar   80  TYR80       0.1957
     79  OH        37.2840   38.9370   44.4750 O.3    80  TYR80      -0.2866
     80  N         41.4280   43.0220   45.5690 N.am   81  PRO81      -0.2729
     81  CA        40.9330   44.3090   45.0840 C.3    81  PRO81       0.1401
     82  C         39.6540   44.7870   45.7600 C.2    81  PRO81       0.2269
     83  O         38.7190   44.0120   46.0060 O.2    81  PRO81      -0.2865
     84  CB        40.7570   44.0660   43.5850 C.3    81  PRO81       0.0296
     85  CG        40.3610   42.6150   43.5260 C.3    81  PRO81       0.0237
     86  CD        41.2840   41.9680   44.5430 C.3    81  PRO81       0.0939
     87  N         25.6180   31.3670   42.0710 N.3   155  PHE155     -0.1227
     88  CA        27.0720   31.2160   41.9890 C.3   155  PHE155      0.1736
     89  C         27.5080   30.9920   40.5320 C.2   155  PHE155      0.2596
     90  O         26.7980   30.3480   39.7560 O.2   155  PHE155     -0.2718
     91  CB        27.5100   30.0310   42.8550 C.3   155  PHE155      0.0547
     92  CG        27.4890   30.3300   44.3400 C.ar  155  PHE155     -0.0202
     93  CD1       26.4040   30.0000   45.1240 C.ar  155  PHE155     -0.0042
     94  CD2       28.5760   30.9730   44.9400 C.ar  155  PHE155     -0.0042
     95  CE1       26.3890   30.3010   46.4970 C.ar  155  PHE155     -0.0003
     96  CE2       28.5700   31.2780   46.3020 C.ar  155  PHE155     -0.0003
     97  CZ        27.4730   30.9370   47.0840 C.ar  155  PHE155     -0.0000
     98  N         28.6830   31.4940   40.1660 N.am  156  GLY156     -0.1957
     99  CA        29.1530   31.3120   38.8090 C.3   156  GLY156      0.1869
    100  C         29.7670   29.9480   38.5440 C.2   156  GLY156      0.2309
    101  O         30.3870   29.3330   39.4240 O.2   156  GLY156     -0.2863
    102  N         32.2050   29.5410   36.7250 N.3   158  LYS158     -0.1231
    103  CA        33.6450   29.7580   36.6310 C.3   158  LYS158      0.1693
    104  C         34.3980   29.0790   37.7810 C.2   158  LYS158      0.2592
    105  O         35.4410   28.4640   37.5820 O.2   158  LYS158     -0.2718
    106  CB        33.9710   31.2560   36.6330 C.3   158  LYS158      0.0285
    107  CG        35.4540   31.5260   36.3740 C.3   158  LYS158      0.0035
    108  CD        35.8020   32.9910   36.5300 C.3   158  LYS158      0.0206
    109  CE        35.9540   33.3510   37.9980 C.3   158  LYS158      0.1093
    110  NZ        36.2480   34.7980   38.1680 N.3   158  LYS158     -0.1314
    111  N         33.8790   29.2340   38.9900 N.am  159  ASP159     -0.1974
    112  CA        34.4660   28.6250   40.1700 C.3   159  ASP159      0.1709
    113  C         33.6250   27.3710   40.4030 C.2   159  ASP159      0.2293
    114  O         32.8580   27.2730   41.3630 O.2   159  ASP159     -0.2864
    115  CB        34.3710   29.6010   41.3410 C.3   159  ASP159      0.1436
    116  CG        35.1920   30.8580   41.0930 C.2   159  ASP159      0.3671
    117  OD1       36.4260   30.7660   41.1780 O.co2 159  ASP159     -0.2456
    118  OD2       34.6050   31.9190   40.7840 O.co2 159  ASP159     -0.2456
    119  N         33.8360   25.3840   43.6800 N.3   162  GLN162     -0.1245
    120  CA        33.1440   26.0960   44.7300 C.3   162  GLN162      0.1566
    121  C         31.6300   25.8590   44.6090 C.2   162  GLN162      0.2260
    122  O         30.9440   25.6740   45.6100 O.2   162  GLN162     -0.2867
    123  CB        33.4440   27.5960   44.6210 C.3   162  GLN162      0.0367
    124  CG        32.4410   28.4770   45.3410 C.3   162  GLN162      0.0905
    125  CD        32.9070   29.9110   45.4170 C.2   162  GLN162      0.2608
    126  OE1       33.7440   30.2560   46.2560 O.2   162  GLN162     -0.2717
    127  NE2       32.4000   30.7480   44.5170 N.am  162  GLN162     -0.0878
    128  N         26.2580   30.3840   33.9640 N.3   183  PRO183     -0.2102
    129  CA        27.3270   30.2160   32.9720 C.3   183  PRO183      0.1504
    130  C         28.4160   31.2830   33.0400 C.2   183  PRO183      0.2576
    131  O         28.1420   32.4540   33.2780 O.2   183  PRO183     -0.2718
    132  CB        26.5700   30.2490   31.6430 C.3   183  PRO183      0.0282
    133  CG        25.2380   29.6250   32.0250 C.3   183  PRO183      0.0208
    134  CD        24.9380   30.3740   33.3000 C.3   183  PRO183      0.0893
    135  N         29.6490   30.8630   32.7980 N.am  184  THR184     -0.1939
    136  CA        30.7850   31.7730   32.8470 C.3   184  THR184      0.2028
    137  C         30.7460   32.8740   31.7880 C.2   184  THR184      0.2642
    138  O         30.4840   32.6170   30.6060 O.2   184  THR184     -0.2714
    139  CB        32.0940   30.9660   32.7370 C.3   184  THR184      0.1808
    140  OG1       32.2210   30.1380   33.9020 O.3   184  THR184     -0.2208
    141  CG2       33.2970   31.8780   32.6150 C.3   184  THR184      0.0379
    142  N         30.9720   34.1080   32.2300 N.am  185  VAL185     -0.1977
    143  CA        31.0070   35.2520   31.3220 C.3   185  VAL185      0.1596
    144  C         32.4440   35.3820   30.8290 C.2   185  VAL185      0.2287
    145  O         33.3840   35.3320   31.6250 O.2   185  VAL185     -0.2864
    146  CB        30.5830   36.5660   32.0320 C.3   185  VAL185      0.0276
    147  CG1       30.6730   37.7300   31.0590 C.3   185  VAL185      0.0022
    148  CG2       29.1610   36.4420   32.5470 C.3   185  VAL185      0.0022
    149  N         36.1380   36.0650   32.6100 N.3   193  MET193     -0.1230
    150  CA        36.3060   37.2780   33.3920 C.3   193  MET193      0.1702
    151  C         36.5870   36.9480   34.8500 C.2   193  MET193      0.2593
    152  O         36.0160   36.0250   35.4320 O.2   193  MET193     -0.2718
    153  CB        35.0900   38.1780   33.2670 C.3   193  MET193      0.0401
    154  CG        35.1230   39.0140   31.9890 C.3   193  MET193      0.0596
    155  SD        33.6200   39.9680   31.7960 S.3   193  MET193     -0.1393
    156  CE        33.6920   40.3800   30.0500 C.3   193  MET193      0.0692
    157  N         37.4830   37.7220   35.4370 N.am  194  SER194     -0.1938
    158  CA        37.8890   37.4820   36.8080 C.3   194  SER194      0.2055
    159  C         38.5640   38.7510   37.2980 C.2   194  SER194      0.2644
    160  O         39.2490   39.4240   36.5280 O.2   194  SER194     -0.2714
    161  CB        38.8890   36.3150   36.8200 C.3   194  SER194      0.2130
    162  OG        39.1660   35.8780   38.1360 O.3   194  SER194     -0.2179
    163  N         38.3840   39.0810   38.5700 N.am  195  SER195     -0.1935
    164  CA        39.0100   40.2820   39.0870 C.3   195  SER195      0.2055
    165  C         40.5180   40.1530   39.0580 C.2   195  SER195      0.2642
    166  O         41.2250   41.1570   38.9610 O.2   195  SER195     -0.2714
    167  CB        38.5240   40.5800   40.5040 C.3   195  SER195      0.2130
    168  OG        37.2700   41.2310   40.4330 O.3   195  SER195     -0.2179
    169  N         41.0210   38.9230   39.1230 N.am  196  ARG196     -0.1977
    170  CA        42.4730   38.7280   39.0790 C.3   196  ARG196      0.1597
    171  C         43.0750   39.0270   37.6940 C.2   196  ARG196      0.2287
    172  O         44.3000   39.1370   37.5560 O.2   196  ARG196     -0.2864
    173  CB        42.8200   37.3010   39.4750 C.3   196  ARG196      0.0334
    174  CG        42.4100   36.2850   38.4370 C.3   196  ARG196      0.0492
    175  CD        42.5460   34.8780   38.9880 C.3   196  ARG196      0.2205
    176  NE        41.5940   34.6330   40.0660 N.pl3 196  ARG196     -0.0865
    177  CZ        41.4400   33.4630   40.6760 C.cat 196  ARG196      0.5346
    178  NH1       42.1860   32.4260   40.3160 N.pl3 196  ARG196      0.1354
    179  NH2       40.5260   33.3220   41.6290 N.pl3 196  ARG196      0.1354
@<TRIPOS>BOND
     1   156   155    1
     2   138   137    2
     3   144   143    1
     4   144   145    2
     5   147   146    1
     6   143   146    1
     7   143   142    1
     8   132   133    1
     9   132   129    1
    10   137   142   am
    11   137   136    1
    12   155   154    1
    13   154   153    1
    14   133   134    1
    15   146   148    1
    16   149   150    1
    17   141   139    1
    18   139   136    1
    19   139   140    1
    20   135   136    1
    21   135   130   am
    22   129   130    1
    23   129   128    1
    24   130   131    2
    25   153   150    1
    26   134   128    1
    27   150   151    1
    28   151   152    2
    29   151   157   am
    30    37    38    1
    31    38    39    1
    32   157   158    1
    33    29    30    2
    34    29    28    1
    35   107   108    1
    36   107   106    1
    37    33    32   ar
    38    33    35   ar
    39    31    28    1
    40    31    32    1
    41   160   159    2
    42   108   109    1
    43    39    40    2
    44    39    41   am
    45   103   106    1
    46   103   102    1
    47   103   104    1
    48   158   161    1
    49   158   159    1
    50   161   162    1
    51    28    27    1
    52    32    34   ar
    53    35    36   ar
    54    51    52    1
    55   159   163   am
    56    41    42    1
    57   172   171    2
    58   105   104    2
    59   171   170    1
    60    34    36   ar
    61   104   111   am
    62   109   110    1
    63    43    42    1
    64    43    44    2
    65    57    56    1
    66    52    53    1
    67    52    55    1
    68   174   175    1
    69   174   173    1
    70   100    99    1
    71   100   101    2
    72   163   164    1
    73    42    45    1
    74    99    98    1
    75    53    54    2
    76   166   165    2
    77   175   176    1
    78   111   112    1
    79   165   164    1
    80   165   169   am
    81   170   169    1
    82   170   173    1
    83   164   167    1
    84    56    55    1
    85    56    58    1
    86    45    46    1
    87    90    89    2
    88    47    46   ar
    89    47    49   ar
    90   176   177    2
    91    98    89   am
    92   112   113    1
    93   112   115    1
    94    46    48   ar
    95   178   177    1
    96   113   114    2
    97   168   167    1
    98    49    50   ar
    99    89    88    1
   100   177   179    1
   101   118   116   ar
   102   116   117   ar
   103   116   115    1
   104    48    50   ar
   105    88    87    1
   106    88    91    1
   107    91    92    1
   108    85    84    1
   109    85    86    1
   110    84    81    1
   111   119   120    1
   112    26    25    2
   113    92    94   ar
   114    92    93   ar
   115    25    24    1
   116    79    78    1
   117   127   125   am
   118    86    80    1
   119    14    12    1
   120   121   120    1
   121   121   122    2
   122   123   120    1
   123   123   124    1
   124    94    96   ar
   125    81    80    1
   126    81    82    1
   127    93    95   ar
   128    12    13    1
   129    12     9    1
   130   124   125    1
   131    78    76   ar
   132    78    77   ar
   133   125   126    2
   134    76    74   ar
   135    80    70   am
   136     4     3    2
   137    24    23    1
   138    82    83    2
   139    77    75   ar
   140     9     8    1
   141     9    10    1
   142    23    17   am
   143    96    97   ar
   144    74    73   ar
   145    95    97   ar
   146     1     7    1
   147     1     2    1
   148     7     6    1
   149     3     8   am
   150     3     2    1
   151    15    10   am
   152    15    16    1
   153    70    69    1
   154    70    71    2
   155    17    18    2
   156    17    16    1
   157    75    73   ar
   158    73    72    1
   159    10    11    2
   160    69    68    1
   161    69    72    1
   162     2     5    1
   163    16    19    1
   164    19    20    1
   165     6     5    1
   166    22    21    1
   167    20    21    1
   168    67    65   am
   169    65    66    2
   170    65    64    1
   171    62    61    2
   172    64    63    1
   173    63    60    1
   174    61    60    1
   175    60    59    1
