@<TRIPOS>MOLECULE
tmp/1n2iB00.pdb
 229 221 0 0 0
SMALL
GASTEIGER

@<TRIPOS>ATOM
      1  N         14.0670   17.7340   69.9950 N.3    37  PRO37      -0.2102
      2  CA        14.8840   16.6390   69.4490 C.3    37  PRO37       0.1504
      3  C         15.1630   15.5310   70.4770 C.2    37  PRO37       0.2576
      4  O         15.5770   15.8240   71.6040 O.2    37  PRO37      -0.2718
      5  CB        16.1830   17.3380   69.0190 C.3    37  PRO37       0.0282
      6  CG        15.7710   18.8020   68.8250 C.3    37  PRO37       0.0208
      7  CD        14.7990   19.0290   69.9400 C.3    37  PRO37       0.0893
      8  N         14.9470   14.2700   70.0910 N.am   38  THR38      -0.1939
      9  CA        15.2440   13.1780   71.0220 C.3    38  THR38       0.2028
     10  C         15.7920   11.9520   70.2740 C.2    38  THR38       0.2642
     11  O         15.7590   11.8950   69.0560 O.2    38  THR38      -0.2714
     12  CB        13.9830   12.6580   71.8090 C.3    38  THR38       0.1808
     13  OG1       13.2460   11.7310   70.9960 O.3    38  THR38      -0.2208
     14  CG2       13.0680   13.7830   72.2320 C.3    38  THR38       0.0379
     15  N         16.2900   10.9730   71.0250 N.am   39  MET39      -0.1962
     16  CA        16.7110    9.7190   70.3920 C.3    39  MET39       0.1736
     17  C         15.7950    8.5800   70.8520 C.2    39  MET39       0.2617
     18  O         16.1650    7.3880   70.7860 O.2    39  MET39      -0.2715
     19  CB        18.1900    9.4120   70.6740 C.3    39  MET39       0.0427
     20  CG        19.0740   10.4940   70.0890 C.3    39  MET39       0.0599
     21  SD        20.7300   10.0020   69.6860 S.3    39  MET39      -0.1393
     22  CE        21.2220    9.3910   71.2460 C.3    39  MET39       0.0692
     23  N         14.5720    8.9410   71.2410 N.am   40  GLY40      -0.1955
     24  CA        13.5820    7.9460   71.6690 C.3    40  GLY40       0.1869
     25  C         13.8020    7.3600   73.0520 C.2    40  GLY40       0.2309
     26  O         14.5600    7.9180   73.8490 O.2    40  GLY40      -0.2863
     27  N         11.4190    9.1460   78.5710 N.3    43  HIS43      -0.1241
     28  CA        11.0690    9.0920   79.9930 C.3    43  HIS43       0.1621
     29  C         10.6610   10.5020   80.4110 C.2    43  HIS43       0.2264
     30  O         10.6550   11.4080   79.5790 O.2    43  HIS43      -0.2867
     31  CB        12.2250    8.5390   80.8700 C.3    43  HIS43       0.0745
     32  CG        13.5270    9.2570   80.6960 C.ar   43  HIS43       0.0817
     33  ND1       13.6870   10.5930   81.0010 N.ar   43  HIS43      -0.2268
     34  CD2       14.7310    8.8270   80.2380 C.ar   43  HIS43       0.1154
     35  CE1       14.9300   10.9580   80.7310 C.ar   43  HIS43       0.1986
     36  NE2       15.5850    9.9050   80.2680 N.ar   43  HIS43      -0.2212
     37  N         12.0870   12.8200   81.7990 N.3    45  GLY45      -0.1210
     38  CA        13.0450   13.8790   81.5190 C.3    45  GLY45       0.1956
     39  C         12.7400   14.4780   80.1450 C.2    45  GLY45       0.2611
     40  O         12.6940   15.6860   79.9840 O.2    45  GLY45      -0.2717
     41  N         12.5010   13.6180   79.1620 N.am   46  HIS46      -0.1975
     42  CA        12.1880   14.0670   77.8080 C.3    46  HIS46       0.1656
     43  C         10.8290   14.7350   77.7830 C.2    46  HIS46       0.2291
     44  O         10.6440   15.7270   77.0830 O.2    46  HIS46      -0.2864
     45  CB        12.1610   12.8860   76.8290 C.3    46  HIS46       0.0771
     46  CG        13.4120   12.0640   76.8630 C.ar   46  HIS46       0.0820
     47  ND1       13.4350   10.7630   77.3230 N.ar   46  HIS46      -0.2267
     48  CD2       14.6800   12.3540   76.4850 C.ar   46  HIS46       0.1154
     49  CE1       14.6640   10.2840   77.2190 C.ar   46  HIS46       0.1986
     50  NE2       15.4370   11.2300   76.7170 N.ar   46  HIS46      -0.2212
     51  N          9.4780   16.5020   79.9750 N.3    48  ALA48      -0.1231
     52  CA         9.4870   17.8450   80.5420 C.3    48  ALA48       0.1694
     53  C          9.7090   18.8230   79.3870 C.2    48  ALA48       0.2591
     54  O          9.1370   19.9240   79.3910 O.2    48  ALA48      -0.2718
     55  CB        10.6280   17.9940   81.5870 C.3    48  ALA48       0.0304
     56  N         10.5470   18.4430   78.4120 N.am   49  LEU49      -0.1980
     57  CA        10.7730   19.3310   77.2680 C.3    49  LEU49       0.1596
     58  C          9.4800   19.4160   76.4700 C.2    49  LEU49       0.2287
     59  O          9.0780   20.4900   76.0070 O.2    49  LEU49      -0.2864
     60  CB        11.8750   18.8100   76.3420 C.3    49  LEU49       0.0297
     61  CG        13.3280   19.1060   76.7510 C.3    49  LEU49       0.0022
     62  CD1       13.6220   18.5580   78.1360 C.3    49  LEU49       0.0001
     63  CD2       14.2350   18.4940   75.6850 C.3    49  LEU49       0.0001
     64  N         15.1590   10.0500   66.5960 N.3    66  PHE66      -0.1241
     65  CA        16.1430    9.5850   65.6480 C.3    66  PHE66       0.1605
     66  C         17.4350    9.2400   66.3630 C.2    66  PHE66       0.2264
     67  O         18.0470   10.1010   66.9720 O.2    66  PHE66      -0.2867
     68  CB        16.4310   10.6790   64.6050 C.3    66  PHE66       0.0534
     69  CG        17.5190   10.3180   63.6300 C.ar   66  PHE66      -0.0203
     70  CD1       17.4020    9.1880   62.8090 C.ar   66  PHE66      -0.0042
     71  CD2       18.6780   11.1020   63.5370 C.ar   66  PHE66      -0.0042
     72  CE1       18.4380    8.8450   61.9050 C.ar   66  PHE66      -0.0003
     73  CE2       19.7050   10.7790   62.6540 C.ar   66  PHE66      -0.0003
     74  CZ        19.5930    9.6430   61.8300 C.ar   66  PHE66      -0.0000
     75  N         20.9000    8.9840   66.2010 N.3    68  ASN68      -0.1240
     76  CA        21.8830    9.5850   65.3030 C.3    68  ASN68       0.1653
     77  C         23.2260    8.8740   65.3330 C.2    68  ASN68       0.2266
     78  O         24.0010    9.0380   66.2760 O.2    68  ASN68      -0.2867
     79  CB        22.0450   11.0750   65.7050 C.3    68  ASN68       0.1155
     80  CG        23.1130   11.7840   64.8880 C.2    68  ASN68       0.2627
     81  OD1       23.2790   11.4810   63.7180 O.2    68  ASN68      -0.2716
     82  ND2       23.8370   12.7530   65.5000 N.am   68  ASN68      -0.0877
     83  N         26.8140   10.6190   66.2940 N.3    71  GLN71      -0.1245
     84  CA        27.2740   11.0010   67.6200 C.3    71  GLN71       0.1566
     85  C         27.6960    9.8160   68.4630 C.2    71  GLN71       0.2260
     86  O         28.0290    9.9790   69.6090 O.2    71  GLN71      -0.2867
     87  CB        26.2380   11.8310   68.3610 C.3    71  GLN71       0.0367
     88  CG        24.9970   11.0930   68.8130 C.3    71  GLN71       0.0905
     89  CD        23.9250   12.0880   69.2420 C.2    71  GLN71       0.2608
     90  OE1       23.4020   12.8170   68.4040 O.2    71  GLN71      -0.2717
     91  NE2       23.6300   12.1470   70.5490 N.am   71  GLN71      -0.0878
     92  N         21.6630    0.7800   71.5980 N.3    81  TYR81      -0.1241
     93  CA        20.8310    1.8730   72.0910 C.3    81  TYR81       0.1605
     94  C         19.3750    1.4180   72.1700 C.2    81  TYR81       0.2264
     95  O         18.8740    0.7770   71.2580 O.2    81  TYR81      -0.2867
     96  CB        20.9060    3.0950   71.1640 C.3    81  TYR81       0.0534
     97  CG        20.4990    4.3770   71.8610 C.ar   81  TYR81      -0.0201
     98  CD1       21.3880    5.0220   72.7210 C.ar   81  TYR81      -0.0009
     99  CD2       19.1970    4.8950   71.7390 C.ar   81  TYR81      -0.0009
    100  CE1       21.0120    6.1420   73.4550 C.ar   81  TYR81       0.0417
    101  CE2       18.7990    6.0230   72.4800 C.ar   81  TYR81       0.0417
    102  CZ        19.7160    6.6400   73.3390 C.ar   81  TYR81       0.1957
    103  OH        19.3540    7.7390   74.1000 O.3    81  TYR81      -0.2866
    104  N         31.9720   13.3180   69.3220 N.3   134  HIS134     -0.1241
    105  CA        30.5720   13.2980   69.7550 C.3   134  HIS134      0.1621
    106  C         29.7580   14.5520   69.4170 C.2   134  HIS134      0.2264
    107  O         28.6570   14.4490   68.8490 O.2   134  HIS134     -0.2867
    108  CB        30.4940   13.0660   71.2730 C.3   134  HIS134      0.0745
    109  CG        29.1050   13.1680   71.8220 C.ar  134  HIS134      0.0817
    110  ND1       28.1190   12.2470   71.5340 N.ar  134  HIS134     -0.2268
    111  CD2       28.5350   14.0900   72.6310 C.ar  134  HIS134      0.1154
    112  CE1       27.0010   12.5980   72.1440 C.ar  134  HIS134      0.1986
    113  NE2       27.2270   13.7110   72.8200 N.ar  134  HIS134     -0.2212
    114  N         26.3910   15.6100   67.1740 N.3   138  VAL138     -0.1245
    115  CA        25.2070   16.2850   67.7080 C.3   138  VAL138      0.1561
    116  C         24.8710   17.5840   66.9190 C.2   138  VAL138      0.2260
    117  O         23.7290   17.8000   66.4940 O.2   138  VAL138     -0.2867
    118  CB        25.4410   16.6940   69.2010 C.3   138  VAL138      0.0252
    119  CG1       24.2440   17.5220   69.7400 C.3   138  VAL138      0.0019
    120  CG2       25.6470   15.3850   70.0600 C.3   138  VAL138      0.0019
    121  N         23.5620   16.8630   63.3390 N.3   141  VAL141     -0.1231
    122  CA        22.1610   16.4420   63.2250 C.3   141  VAL141      0.1692
    123  C         21.1680   17.5150   63.6960 C.2   141  VAL141      0.2591
    124  O         20.0640   17.6550   63.1460 O.2   141  VAL141     -0.2718
    125  CB        21.9260   15.0800   63.9760 C.3   141  VAL141      0.0266
    126  CG1       21.7280   15.3240   65.4710 C.3   141  VAL141      0.0020
    127  CG2       20.6870   14.3500   63.3840 C.3   141  VAL141      0.0020
    128  N         21.5520   18.3160   64.6730 N.am  142  VAL142     -0.1980
    129  CA        20.6400   19.3590   65.1550 C.3   142  VAL142      0.1595
    130  C         20.4630   20.4290   64.0750 C.2   142  VAL142      0.2287
    131  O         19.3260   20.8960   63.8270 O.2   142  VAL142     -0.2864
    132  CB        21.1290   19.9790   66.5140 C.3   142  VAL142      0.0276
    133  CG1       20.3270   21.2400   66.8440 C.3   142  VAL142      0.0022
    134  CG2       20.9100   18.9580   67.6690 C.3   142  VAL142      0.0022
    135  N         18.0400   19.0300   61.5990 N.3   145  LEU145     -0.1245
    136  CA        16.6530   19.0110   62.1040 C.3   145  LEU145      0.1561
    137  C         16.0880   20.4160   62.1030 C.2   145  LEU145      0.2260
    138  O         14.9190   20.6290   61.7770 O.2   145  LEU145     -0.2867
    139  CB        16.6050   18.4340   63.5070 C.3   145  LEU145      0.0270
    140  CG        16.9320   16.9410   63.5790 C.3   145  LEU145      0.0019
    141  CD1       17.1460   16.5650   65.0490 C.3   145  LEU145      0.0001
    142  CD2       15.7410   16.1560   62.9740 C.3   145  LEU145      0.0001
    143  N         13.9450   22.9420   71.9240 N.3   155  PHE155     -0.1227
    144  CA        14.0900   22.6660   73.3450 C.3   155  PHE155      0.1736
    145  C         15.1500   21.6340   73.6630 C.2   155  PHE155      0.2595
    146  O         15.1880   20.5670   73.0460 O.2   155  PHE155     -0.2718
    147  CB        12.7290   22.1940   73.9050 C.3   155  PHE155      0.0547
    148  CG        11.6430   23.2590   73.8410 C.ar  155  PHE155     -0.0202
    149  CD1       11.0750   23.6290   72.6260 C.ar  155  PHE155     -0.0042
    150  CD2       11.2900   23.9510   74.9920 C.ar  155  PHE155     -0.0042
    151  CE1       10.1620   24.7010   72.5460 C.ar  155  PHE155     -0.0003
    152  CE2       10.3880   25.0290   74.9500 C.ar  155  PHE155     -0.0003
    153  CZ         9.8210   25.4080   73.7200 C.ar  155  PHE155     -0.0000
    154  N         15.9970   21.9830   74.6180 N.am  156  PHE156     -0.1962
    155  CA        17.0880   21.1030   75.0790 C.3   156  PHE156      0.1771
    156  C         17.1220   21.0530   76.6140 C.2   156  PHE156      0.2620
    157  O         16.8530   22.0590   77.2900 O.2   156  PHE156     -0.2715
    158  CB        18.4180   21.6340   74.5660 C.3   156  PHE156      0.0574
    159  CG        18.6270   21.4190   73.1040 C.ar  156  PHE156     -0.0200
    160  CD1       18.3400   22.4230   72.1810 C.ar  156  PHE156     -0.0042
    161  CD2       19.0560   20.1760   72.6330 C.ar  156  PHE156     -0.0042
    162  CE1       18.4770   22.1870   70.7860 C.ar  156  PHE156     -0.0003
    163  CE2       19.1910   19.9330   71.2610 C.ar  156  PHE156     -0.0003
    164  CZ        18.8990   20.9440   70.3250 C.ar  156  PHE156     -0.0000
    165  N         17.4700   19.8900   77.1790 N.am  157  GLY157     -0.1954
    166  CA        17.4980   19.7660   78.6180 C.3   157  GLY157      0.1869
    167  C         18.8100   20.2350   79.2320 C.2   157  GLY157      0.2309
    168  O         19.8540   20.0830   78.6130 O.2   157  GLY157     -0.2863
    169  N         20.1510   18.9090   81.4500 N.3   159  LYS159     -0.1231
    170  CA        20.8030   17.6350   81.7940 C.3   159  LYS159      0.1693
    171  C         22.1080   17.5530   80.9920 C.2   159  LYS159      0.2592
    172  O         23.1940   17.2540   81.5210 O.2   159  LYS159     -0.2718
    173  CB        19.8650   16.4820   81.4000 C.3   159  LYS159      0.0285
    174  CG        20.4670   15.0620   81.4720 C.3   159  LYS159      0.0035
    175  CD        20.3640   14.4770   82.8790 C.3   159  LYS159      0.0206
    176  CE        21.0650   13.1050   82.9700 C.3   159  LYS159      0.1093
    177  NZ        22.5590   13.2340   82.8390 N.3   159  LYS159     -0.1314
    178  N         22.0120   17.8360   79.7050 N.am  160  ASP160     -0.1974
    179  CA        23.2040   17.8300   78.8590 C.3   160  ASP160      0.1709
    180  C         23.5680   19.2810   78.6480 C.2   160  ASP160      0.2293
    181  O         23.3720   19.8450   77.5680 O.2   160  ASP160     -0.2864
    182  CB        22.9000   17.1160   77.5460 C.3   160  ASP160      0.1436
    183  CG        22.4370   15.6930   77.7880 C.2   160  ASP160      0.3671
    184  OD1       23.3100   14.9020   78.1540 O.co2 160  ASP160     -0.2456
    185  OD2       21.2180   15.3800   77.6590 O.co2 160  ASP160     -0.2456
    186  N         26.0250   20.1620   75.8720 N.3   163  GLN163     -0.1245
    187  CA        25.3280   20.0570   74.5970 C.3   163  GLN163      0.1566
    188  C         24.5070   21.3350   74.3760 C.2   163  GLN163      0.2260
    189  O         24.5400   21.9320   73.2940 O.2   163  GLN163     -0.2867
    190  CB        24.3910   18.8480   74.6010 C.3   163  GLN163      0.0367
    191  CG        23.3560   18.8840   73.4550 C.3   163  GLN163      0.0905
    192  CD        22.6220   17.5630   73.3870 C.2   163  GLN163      0.2608
    193  OE1       23.0680   16.6390   72.7040 O.2   163  GLN163     -0.2717
    194  NE2       21.5340   17.4430   74.1400 N.am  163  GLN163     -0.0878
    195  N         14.9450   22.7930   82.7350 N.3   184  PRO184     -0.2102
    196  CA        15.5820   22.2220   83.9300 C.3   184  PRO184      0.1504
    197  C         15.5860   20.7060   83.9840 C.2   184  PRO184      0.2576
    198  O         14.6790   20.0290   83.5160 O.2   184  PRO184     -0.2718
    199  CB        14.7870   22.8360   85.0980 C.3   184  PRO184      0.0282
    200  CG        14.3100   24.1150   84.5490 C.3   184  PRO184      0.0208
    201  CD        13.8960   23.7530   83.1250 C.3   184  PRO184      0.0893
    202  N         16.6520   20.1880   84.5730 N.am  185  THR185     -0.1939
    203  CA        16.8340   18.7510   84.7360 C.3   185  THR185      0.2028
    204  C         15.7790   18.1100   85.6260 C.2   185  THR185      0.2642
    205  O         15.4950   18.5790   86.7340 O.2   185  THR185     -0.2714
    206  CB        18.2360   18.4970   85.3280 C.3   185  THR185      0.1808
    207  OG1       19.2160   18.9190   84.3650 O.3   185  THR185     -0.2208
    208  CG2       18.4290   17.0420   85.6670 C.3   185  THR185      0.0379
    209  N         15.1760   17.0360   85.1190 N.am  186  VAL186     -0.1977
    210  CA        14.1870   16.2980   85.8830 C.3   186  VAL186      0.1596
    211  C         14.9820   15.2680   86.6850 C.2   186  VAL186      0.2287
    212  O         15.8570   14.5930   86.1350 O.2   186  VAL186     -0.2864
    213  CB        13.2110   15.5550   84.9550 C.3   186  VAL186      0.0276
    214  CG1       12.2660   14.6860   85.7740 C.3   186  VAL186      0.0022
    215  CG2       12.4090   16.5620   84.1240 C.3   186  VAL186      0.0022
    216  N         17.4290   12.1210   85.9750 N.3   194  MET194     -0.1230
    217  CA        16.8300   11.0000   85.2590 C.3   194  MET194      0.1702
    218  C         17.5580   10.6590   83.9840 C.2   194  MET194      0.2593
    219  O         17.8810   11.5350   83.1850 O.2   194  MET194     -0.2718
    220  CB        15.3490   11.2730   84.9370 C.3   194  MET194      0.0401
    221  CG        14.4370   11.3190   86.1490 C.3   194  MET194      0.0596
    222  SD        12.6710   11.1640   85.6340 S.3   194  MET194     -0.1393
    223  CE        12.8430   10.1790   84.2890 C.3   194  MET194      0.0692
    224  N         17.8060    9.3690   83.7920 N.am  195  SER195     -0.1952
    225  CA        18.5210    8.8980   82.6290 C.3   195  SER195      0.1924
    226  C         18.1990    7.4350   82.4260 C.2   195  SER195      0.2314
    227  O         17.9880    6.7060   83.3970 O.2   195  SER195     -0.2863
    228  CB        20.0360    9.0400   82.8540 C.3   195  SER195      0.2116
    229  OG        20.7540    8.2470   81.9180 O.3   195  SER195     -0.2180
@<TRIPOS>BOND
     1   135   136    1
     2   138   137    2
     3    74    72   ar
     4    74    73   ar
     5    72    70   ar
     6   137   136    1
     7   136   139    1
     8    73    71   ar
     9    70    69   ar
    10   142   140    1
    11   124   123    2
    12   122   121    1
    13   122   123    1
    14   122   125    1
    15   127   125    1
    16   139   140    1
    17    71    69   ar
    18   140   141    1
    19    69    68    1
    20   123   128   am
    21    81    80    2
    22   131   130    2
    23   125   126    1
    24   130   129    1
    25    68    65    1
    26   128   129    1
    27    80    82   am
    28    80    79    1
    29   129   132    1
    30    76    77    1
    31    76    79    1
    32    76    75    1
    33    77    78    2
    34    65    66    1
    35    65    64    1
    36    83    84    1
    37    66    67    2
    38   117   116    2
    39   132   133    1
    40   132   134    1
    41   116   115    1
    42   114   115    1
    43    84    87    1
    44    84    85    1
    45   115   118    1
    46    87    88    1
    47    90    89    2
    48    85    86    2
    49    88    89    1
    50     6     5    1
    51     6     7    1
    52   107   106    2
    53     5     2    1
    54    11    10    2
    55   118   119    1
    56   118   120    1
    57    89    91   am
    58   104   105    1
    59   106   105    1
    60     2     1    1
    61     2     3    1
    62    21    20    1
    63    21    22    1
    64   105   108    1
    65     7     1    1
    66    20    19    1
    67     8     3   am
    68     8     9    1
    69    10     9    1
    70    10    15   am
    71   164   162   ar
    72   164   163   ar
    73    16    19    1
    74    16    17    1
    75    16    15    1
    76     3     4    2
    77   162   160   ar
    78    18    17    2
    79    17    23   am
    80    13    12    1
    81     9    12    1
    82    96    97    1
    83    96    93    1
    84    23    24    1
    85    95    94    2
    86   163   161   ar
    87   108   109    1
    88   110   109   ar
    89   110   112   ar
    90    92    93    1
    91    24    25    1
    92    99    97   ar
    93    99   101   ar
    94    12    14    1
    95   109   111   ar
    96    97    98   ar
    97   143   144    1
    98    93    94    1
    99   112   113   ar
   100   160   159   ar
   101   101   102   ar
   102   151   149   ar
   103   151   153   ar
   104   149   148   ar
   105   111   113   ar
   106   161   159   ar
   107   193   192    2
   108    98   100   ar
   109   146   145    2
   110    25    26    2
   111   159   158    1
   112   189   188    2
   113   102   100   ar
   114   102   103    1
   115   144   145    1
   116   144   147    1
   117   192   191    1
   118   192   194   am
   119   191   190    1
   120   145   154   am
   121   153   152   ar
   122   148   147    1
   123   148   150   ar
   124   188   187    1
   125   158   155    1
   126   187   190    1
   127   187   186    1
   128   154   155    1
   129   152   150   ar
   130   155   156    1
   131    63    61    1
   132    59    58    2
   133    60    61    1
   134    60    57    1
   135    58    57    1
   136    48    50   ar
   137    48    46   ar
   138   156   165   am
   139   156   157    2
   140    50    49   ar
   141    61    62    1
   142    45    46    1
   143    45    42    1
   144    46    47   ar
   145    44    43    2
   146   165   166    1
   147    49    47   ar
   148    57    56    1
   149   182   183    1
   150   182   179    1
   151   181   180    2
   152   185   183   ar
   153    43    42    1
   154   183   184   ar
   155    42    41    1
   156    56    53   am
   157    27    28    1
   158   168   167    2
   159   166   167    1
   160   180   179    1
   161   179   178    1
   162    41    39   am
   163    53    54    2
   164    53    52    1
   165    30    29    2
   166   178   171   am
   167    51    52    1
   168    40    39    2
   169    28    29    1
   170    28    31    1
   171    39    38    1
   172    34    36   ar
   173    34    32   ar
   174    36    35   ar
   175    52    55    1
   176    32    31    1
   177    32    33   ar
   178    35    33   ar
   179   171   172    2
   180   171   170    1
   181   173   174    1
   182   173   170    1
   183   169   170    1
   184   174   175    1
   185    38    37    1
   186   229   228    1
   187   226   225    1
   188   226   227    2
   189   225   228    1
   190   225   224    1
   191   195   201    1
   192   195   196    1
   193   177   176    1
   194   175   176    1
   195   201   200    1
   196   219   218    2
   197   198   197    2
   198   224   218   am
   199   196   197    1
   200   196   199    1
   201   218   217    1
   202   197   202   am
   203   215   213    1
   204   223   222    1
   205   207   206    1
   206   200   199    1
   207   202   203    1
   208   203   206    1
   209   203   204    1
   210   220   217    1
   211   220   221    1
   212   213   214    1
   213   213   210    1
   214   209   204   am
   215   209   210    1
   216   217   216    1
   217   206   208    1
   218   204   205    2
   219   222   221    1
   220   210   211    1
   221   212   211    2
