@<TRIPOS>MOLECULE
tmp/1n2jA00.pdb
 129 122 0 0 0
SMALL
GASTEIGER

@<TRIPOS>ATOM
      1  N         26.0440   36.2100   46.2730 N.3    36  PRO36      -0.2102
      2  CA        27.2020   36.4510   47.1460 C.3    36  PRO36       0.1504
      3  C         28.4290   36.8130   46.3370 C.2    36  PRO36       0.2576
      4  O         28.7480   36.1400   45.3480 O.2    36  PRO36      -0.2718
      5  CB        27.3890   35.1000   47.8580 C.3    36  PRO36       0.0282
      6  CG        26.0070   34.4260   47.7190 C.3    36  PRO36       0.0208
      7  CD        25.6850   34.7770   46.2860 C.3    36  PRO36       0.0893
      8  N         29.1250   37.8660   46.7440 N.am   37  THR37      -0.1939
      9  CA        30.3450   38.2580   46.0240 C.3    37  THR37       0.2028
     10  C         31.3640   38.8030   47.0360 C.2    37  THR37       0.2642
     11  O         31.0260   39.0680   48.2090 O.2    37  THR37      -0.2714
     12  CB        30.0980   39.4290   45.0280 C.3    37  THR37       0.1808
     13  OG1       30.0480   40.6620   45.7580 O.3    37  THR37      -0.2208
     14  CG2       28.7560   39.2610   44.3070 C.3    37  THR37       0.0379
     15  N         32.6090   38.9480   46.5610 N.am   38  MET38      -0.1976
     16  CA        33.6440   39.5920   47.3660 C.3    38  MET38       0.1605
     17  C         33.9670   40.9510   46.7160 C.2    38  MET38       0.2287
     18  O         35.0970   41.4680   46.7900 O.2    38  MET38      -0.2864
     19  CB        34.8900   38.7050   47.4560 C.3    38  MET38       0.0413
     20  CG        34.5560   37.3960   48.1650 C.3    38  MET38       0.0598
     21  SD        35.8980   36.6350   49.1110 S.3    38  MET38      -0.1393
     22  CE        37.0230   36.2420   47.8510 C.3    38  MET38       0.0692
     23  N         29.7450   39.0840   37.3470 N.3    45  HIS45      -0.1241
     24  CA        28.8570   39.2360   38.5020 C.3    45  HIS45       0.1621
     25  C         27.5390   39.8170   38.0510 C.2    45  HIS45       0.2264
     26  O         26.4840   39.4360   38.5700 O.2    45  HIS45      -0.2867
     27  CB        29.4500   40.1510   39.5910 C.3    45  HIS45       0.0745
     28  CG        30.7400   39.6530   40.1710 C.ar   45  HIS45       0.0817
     29  ND1       31.9640   40.1780   39.8170 N.ar   45  HIS45      -0.2268
     30  CD2       30.9950   38.6840   41.0870 C.ar   45  HIS45       0.1154
     31  CE1       32.9170   39.5590   40.4920 C.ar   45  HIS45       0.1986
     32  NE2       32.3580   38.6480   41.2700 N.ar   45  HIS45      -0.2212
     33  N         31.5420   41.1310   50.5480 N.3    65  PHE65      -0.1241
     34  CA        32.2910   40.8640   51.7850 C.3    65  PHE65       0.1605
     35  C         33.5260   40.0760   51.4200 C.2    65  PHE65       0.2264
     36  O         33.4080   38.9760   50.8790 O.2    65  PHE65      -0.2867
     37  CB        31.4270   40.0270   52.7580 C.3    65  PHE65       0.0534
     38  CG        32.1350   39.6590   54.0180 C.ar   65  PHE65      -0.0203
     39  CD1       32.7280   40.6520   54.7940 C.ar   65  PHE65      -0.0042
     40  CD2       32.2120   38.3380   54.4300 C.ar   65  PHE65      -0.0042
     41  CE1       33.4010   40.3340   55.9900 C.ar   65  PHE65      -0.0003
     42  CE2       32.8660   37.9950   55.6050 C.ar   65  PHE65      -0.0003
     43  CZ        33.4660   39.0020   56.3940 C.ar   65  PHE65      -0.0000
     44  N         35.7370   37.8570   52.4600 N.3    67  ASN67      -0.1240
     45  CA        35.7590   36.9110   53.5750 C.3    67  ASN67       0.1653
     46  C         37.1430   36.4940   54.0460 C.2    67  ASN67       0.2266
     47  O         37.7930   35.6600   53.3980 O.2    67  ASN67      -0.2867
     48  CB        34.9640   35.6720   53.1370 C.3    67  ASN67       0.1155
     49  CG        34.9620   34.5960   54.1980 C.2    67  ASN67       0.2627
     50  OD1       35.0220   34.9140   55.3960 O.2    67  ASN67      -0.2716
     51  ND2       34.9010   33.3190   53.7820 N.am   67  ASN67      -0.0877
     52  N         38.4420   32.4740   54.0860 N.3    70  GLN70      -0.1245
     53  CA        38.8600   31.6850   52.9360 C.3    70  GLN70       0.1566
     54  C         40.2460   32.0660   52.3560 C.2    70  GLN70       0.2260
     55  O         40.6640   31.5560   51.3240 O.2    70  GLN70      -0.2867
     56  CB        37.7920   31.7350   51.8560 C.3    70  GLN70       0.0367
     57  CG        37.6160   33.0890   51.1680 C.3    70  GLN70       0.0905
     58  CD        36.3350   33.1080   50.3340 C.2    70  GLN70       0.2608
     59  OE1       35.2200   33.1110   50.8920 O.2    70  GLN70      -0.2717
     60  NE2       36.4850   33.1010   48.9890 N.am   70  GLN70      -0.0878
     61  N         43.6700   41.2670   47.7910 N.3    80  TYR80      -0.1241
     62  CA        42.4230   41.1440   47.0340 C.3    80  TYR80       0.1605
     63  C         41.9310   42.5150   46.5640 C.2    80  TYR80       0.2264
     64  O         41.8880   43.4690   47.3380 O.2    80  TYR80      -0.2867
     65  CB        41.3430   40.4690   47.8720 C.3    80  TYR80       0.0534
     66  CG        40.2660   39.8630   47.0110 C.ar   80  TYR80      -0.0201
     67  CD1       40.4680   38.6340   46.3830 C.ar   80  TYR80      -0.0009
     68  CD2       39.0680   40.5460   46.7730 C.ar   80  TYR80      -0.0009
     69  CE1       39.4850   38.0930   45.5210 C.ar   80  TYR80       0.0417
     70  CE2       38.0860   40.0170   45.9140 C.ar   80  TYR80       0.0417
     71  CZ        38.3100   38.8000   45.3060 C.ar   80  TYR80       0.1957
     72  OH        37.3680   38.2670   44.4790 O.3    80  TYR80      -0.2866
     73  N         34.9460   29.2610   52.6440 N.3   137  VAL137     -0.1245
     74  CA        33.8800   29.6070   51.7080 C.3   137  VAL137      0.1561
     75  C         32.5150   29.0440   52.2180 C.2   137  VAL137      0.2260
     76  O         31.4940   29.7750   52.2730 O.2   137  VAL137     -0.2867
     77  CB        34.1630   28.9870   50.2890 C.3   137  VAL137      0.0252
     78  CG1       32.9640   29.1770   49.3900 C.3   137  VAL137      0.0019
     79  CG2       35.4580   29.6160   49.6310 C.3   137  VAL137      0.0019
     80  N         31.1830   30.9320   55.3870 N.3   140  VAL140     -0.1231
     81  CA        30.5670   32.2260   55.1380 C.3   140  VAL140      0.1692
     82  C         29.2630   32.1290   54.3100 C.2   140  VAL140      0.2591
     83  O         28.2980   32.8810   54.5500 O.2   140  VAL140     -0.2718
     84  CB        31.5960   33.2310   54.4730 C.3   140  VAL140      0.0266
     85  CG1       31.6730   33.0430   52.9470 C.3   140  VAL140      0.0020
     86  CG2       31.2030   34.6570   54.8370 C.3   140  VAL140      0.0020
     87  N         29.2100   31.2020   53.3530 N.am  141  VAL141     -0.1980
     88  CA        28.0060   31.0780   52.5470 C.3   141  VAL141      0.1595
     89  C         26.8720   30.5540   53.4280 C.2   141  VAL141      0.2287
     90  O         25.7260   30.9780   53.2810 O.2   141  VAL141     -0.2864
     91  CB        28.2140   30.1580   51.3260 C.3   141  VAL141      0.0276
     92  CG1       26.8590   29.7740   50.7250 C.3   141  VAL141      0.0022
     93  CG2       29.0570   30.8900   50.2580 C.3   141  VAL141      0.0022
     94  N         25.6740   33.5800   55.3310 N.3   144  LEU144     -0.1245
     95  CA        24.9560   34.5030   54.4560 C.3   144  LEU144      0.1561
     96  C         23.5340   33.9830   54.1690 C.2   144  LEU144      0.2260
     97  O         22.5730   34.7690   54.1690 O.2   144  LEU144     -0.2867
     98  CB        25.7170   34.6840   53.1420 C.3   144  LEU144      0.0270
     99  CG        27.0080   35.5030   53.3020 C.3   144  LEU144      0.0019
    100  CD1       27.7970   35.4620   52.0110 C.3   144  LEU144      0.0001
    101  CD2       26.6480   36.9730   53.6520 C.3   144  LEU144      0.0001
    102  N         25.4380   31.5100   41.8370 N.3   155  PHE155     -0.1241
    103  CA        26.8840   31.3710   41.7690 C.3   155  PHE155      0.1605
    104  C         27.3350   31.1770   40.3220 C.2   155  PHE155      0.2264
    105  O         26.6290   30.5570   39.5030 O.2   155  PHE155     -0.2867
    106  CB        27.3220   30.1570   42.6120 C.3   155  PHE155      0.0534
    107  CG        27.1270   30.3310   44.0940 C.ar  155  PHE155     -0.0203
    108  CD1       26.0470   29.7580   44.7430 C.ar  155  PHE155     -0.0042
    109  CD2       28.0240   31.0840   44.8470 C.ar  155  PHE155     -0.0042
    110  CE1       25.8490   29.9190   46.0920 C.ar  155  PHE155     -0.0003
    111  CE2       27.8300   31.2530   46.2260 C.ar  155  PHE155     -0.0003
    112  CZ        26.7460   30.6750   46.8510 C.ar  155  PHE155     -0.0000
    113  N         33.9310   29.2920   38.9750 N.3   159  ASP159     -0.1239
    114  CA        34.5180   28.6170   40.1280 C.3   159  ASP159      0.1674
    115  C         33.6150   27.3940   40.3410 C.2   159  ASP159      0.2266
    116  O         32.8300   27.3160   41.2830 O.2   159  ASP159     -0.2867
    117  CB        34.5000   29.5400   41.3320 C.3   159  ASP159      0.1410
    118  CG        35.4380   30.7470   41.1240 C.2   159  ASP159      0.3668
    119  OD1       36.6670   30.5700   41.2190 O.co2 159  ASP159     -0.2456
    120  OD2       34.9300   31.8390   40.8300 O.co2 159  ASP159     -0.2456
    121  N         33.8370   25.2420   43.6050 N.3   162  GLN162     -0.1245
    122  CA        33.1320   25.9790   44.6520 C.3   162  GLN162      0.1566
    123  C         31.6290   25.7530   44.5290 C.2   162  GLN162      0.2260
    124  O         30.9560   25.5320   45.5250 O.2   162  GLN162     -0.2867
    125  CB        33.4030   27.4770   44.5120 C.3   162  GLN162      0.0367
    126  CG        32.4080   28.3540   45.2590 C.3   162  GLN162      0.0905
    127  CD        32.8750   29.8040   45.3210 C.2   162  GLN162      0.2608
    128  OE1       33.7280   30.1510   46.1440 O.2   162  GLN162     -0.2717
    129  NE2       32.3550   30.6420   44.4220 N.am  162  GLN162     -0.0878
@<TRIPOS>BOND
     1    23    24    1
     2    25    24    1
     3    25    26    2
     4    24    27    1
     5   113   114    1
     6   105   104    2
     7    27    28    1
     8    29    28   ar
     9    29    31   ar
    10   114   115    1
    11   114   117    1
    12    28    30   ar
    13   104   103    1
    14   115   116    2
    15    31    32   ar
    16   120   118   ar
    17    30    32   ar
    18   118   119   ar
    19   118   117    1
    20   103   102    1
    21   103   106    1
    22   106   107    1
    23   121   122    1
    24   107   108   ar
    25   107   109   ar
    26    14    12    1
    27   129   127   am
    28    72    71    1
    29   125   122    1
    30   125   126    1
    31   123   122    1
    32   123   124    2
    33   108   110   ar
    34   109   111   ar
    35    12    13    1
    36    12     9    1
    37   126   127    1
    38    71    69   ar
    39    71    70   ar
    40   127   128    2
    41     4     3    2
    42    69    67   ar
    43    70    68   ar
    44     9     8    1
    45     9    10    1
    46   110   112   ar
    47   111   112   ar
    48     1     7    1
    49     1     2    1
    50     7     6    1
    51     3     8   am
    52     3     2    1
    53    67    66   ar
    54    15    10   am
    55    15    16    1
    56    63    62    1
    57    63    64    2
    58    17    18    2
    59    17    16    1
    60    68    66   ar
    61    66    65    1
    62    62    61    1
    63    62    65    1
    64    10    11    2
    65     2     5    1
    66    16    19    1
    67    19    20    1
    68     6     5    1
    69    22    21    1
    70    20    21    1
    71    60    58   am
    72    78    77    1
    73    79    77    1
    74    93    91    1
    75    77    74    1
    76    58    59    2
    77    58    57    1
    78    33    34    1
    79    92    91    1
    80    36    35    2
    81    57    56    1
    82    55    54    2
    83    91    88    1
    84    35    34    1
    85    74    75    1
    86    74    73    1
    87    34    37    1
    88    56    53    1
    89   100    99    1
    90    75    76    2
    91    54    53    1
    92    44    45    1
    93    88    87    1
    94    88    89    1
    95    37    38    1
    96    53    52    1
    97    85    84    1
    98    48    45    1
    99    48    49    1
   100    98    99    1
   101    98    95    1
   102    90    89    2
   103    99   101    1
   104    87    82   am
   105    47    46    2
   106    45    46    1
   107    51    49   am
   108    38    40   ar
   109    38    39   ar
   110    97    96    2
   111    96    95    1
   112    49    50    2
   113    82    83    2
   114    82    81    1
   115    40    42   ar
   116    95    94    1
   117    84    86    1
   118    84    81    1
   119    39    41   ar
   120    81    80    1
   121    42    43   ar
   122    41    43   ar
