@<TRIPOS>MOLECULE
tmp/1n2lA00.pdb
 109 104 0 0 0
SMALL
GASTEIGER

@<TRIPOS>ATOM
      1  N         31.8760   59.9050  -26.5410 N.3    98  LEU98      -0.1245
      2  CA        32.1980   59.0190  -27.6450 C.3    98  LEU98       0.1561
      3  C         31.8580   57.6260  -27.1120 C.2    98  LEU98       0.2260
      4  O         32.6900   56.9620  -26.4880 O.2    98  LEU98      -0.2867
      5  CB        33.6820   59.1160  -28.0050 C.3    98  LEU98       0.0270
      6  CG        34.1180   58.2710  -29.2060 C.3    98  LEU98       0.0019
      7  CD1       33.3470   58.6950  -30.4450 C.3    98  LEU98       0.0001
      8  CD2       35.6110   58.4100  -29.4370 C.3    98  LEU98       0.0001
      9  N         28.1240   54.7130  -30.8610 N.3   123  HIS123     -0.1226
     10  CA        28.7650   55.1840  -32.0840 C.3   123  HIS123      0.1752
     11  C         29.4720   54.0310  -32.7720 C.2   123  HIS123      0.2596
     12  O         29.2760   53.7830  -33.9610 O.2   123  HIS123     -0.2718
     13  CB        29.7880   56.2730  -31.7700 C.3   123  HIS123      0.0759
     14  CG        29.2070   57.4630  -31.0850 C.ar  123  HIS123      0.0818
     15  ND1       27.8800   57.7870  -31.2030 N.ar  123  HIS123     -0.2268
     16  CD2       29.8170   58.3630  -30.2690 C.ar  123  HIS123      0.1154
     17  CE1       27.7050   58.8640  -30.4660 C.ar  123  HIS123      0.1986
     18  NE2       28.8500   59.2530  -29.8790 N.ar  123  HIS123     -0.2212
     19  N         30.3100   53.3380  -32.0120 N.am  124  ARG124     -0.1966
     20  CA        31.0570   52.2080  -32.5370 C.3   124  ARG124      0.1729
     21  C         30.5770   50.9270  -31.8650 C.2   124  ARG124      0.2616
     22  O         30.0020   50.9690  -30.7770 O.2   124  ARG124     -0.2715
     23  CB        32.5550   52.4250  -32.3090 C.3   124  ARG124      0.0348
     24  CG        33.0500   53.7440  -32.8750 C.3   124  ARG124      0.0492
     25  CD        34.5510   53.8910  -32.7710 C.3   124  ARG124      0.2205
     26  NE        34.9720   55.2340  -33.1620 N.pl3 124  ARG124     -0.0865
     27  CZ        36.2060   55.7070  -33.0250 C.cat 124  ARG124      0.5346
     28  NH1       37.1640   54.9480  -32.5090 N.pl3 124  ARG124      0.1354
     29  NH2       36.4740   56.9580  -33.3750 N.pl3 124  ARG124      0.1354
     30  N         30.7920   49.7990  -32.5320 N.am  125  PHE125     -0.1960
     31  CA        30.3800   48.4990  -32.0240 C.3   125  PHE125      0.1771
     32  C         31.1780   47.3760  -32.6660 C.2   125  PHE125      0.2619
     33  O         31.6070   47.4700  -33.8160 O.2   125  PHE125     -0.2715
     34  CB        28.8740   48.2960  -32.2740 C.3   125  PHE125      0.0574
     35  CG        28.3970   46.8860  -32.0480 C.ar  125  PHE125     -0.0200
     36  CD1       28.5830   46.2500  -30.8270 C.ar  125  PHE125     -0.0042
     37  CD2       27.7410   46.2010  -33.0670 C.ar  125  PHE125     -0.0042
     38  CE1       28.1300   44.9490  -30.6280 C.ar  125  PHE125     -0.0003
     39  CE2       27.2870   44.9050  -32.8750 C.ar  125  PHE125     -0.0003
     40  CZ        27.4830   44.2780  -31.6560 C.ar  125  PHE125     -0.0000
     41  N         31.3910   46.3290  -31.8830 N.am  126  LEU126     -0.1977
     42  CA        32.1150   45.1270  -32.2970 C.3   126  LEU126      0.1596
     43  C         31.7390   44.0350  -31.3010 C.2   126  LEU126      0.2287
     44  O         32.0840   44.1190  -30.1280 O.2   126  LEU126     -0.2864
     45  CB        33.6280   45.3730  -32.2500 C.3   126  LEU126      0.0297
     46  CG        34.5370   44.2160  -32.6880 C.3   126  LEU126      0.0022
     47  CD1       34.1990   43.7820  -34.1070 C.3   126  LEU126      0.0001
     48  CD2       36.0010   44.6200  -32.5920 C.3   126  LEU126      0.0001
     49  N         30.3850   44.0890  -36.8360 N.3   164  ALA164     -0.1231
     50  CA        31.1220   45.3340  -36.7310 C.3   164  ALA164      0.1694
     51  C         30.0340   46.3170  -37.1470 C.2   164  ALA164      0.2592
     52  O         29.6600   46.3790  -38.3210 O.2   164  ALA164     -0.2718
     53  CB        32.2770   45.3550  -37.7140 C.3   164  ALA164      0.0304
     54  N         29.4720   47.0200  -36.1660 N.am  165  ASN165     -0.1974
     55  CA        28.3800   47.9600  -36.4010 C.3   165  ASN165      0.1688
     56  C         27.1580   47.1910  -36.9040 C.2   165  ASN165      0.2292
     57  O         26.5150   46.4840  -36.1300 O.2   165  ASN165     -0.2864
     58  CB        28.7890   49.0730  -37.3750 C.3   165  ASN165      0.1181
     59  CG        29.4540   50.2490  -36.6740 C.2   165  ASN165      0.2629
     60  OD1       28.7690   51.1140  -36.1230 O.2   165  ASN165     -0.2716
     61  ND2       30.7840   50.2790  -36.6960 N.am  165  ASN165     -0.0877
     62  N         31.5640   40.7980  -39.6970 N.3   169  GLU169     -0.1245
     63  CA        33.0040   40.8370  -39.9190 C.3   169  GLU169      0.1567
     64  C         33.5430   39.4110  -39.9900 C.2   169  GLU169      0.2260
     65  O         34.5710   39.1520  -40.6180 O.2   169  GLU169     -0.2867
     66  CB        33.7150   41.6180  -38.8090 C.3   169  GLU169      0.0388
     67  CG        35.2070   41.8070  -39.0650 C.3   169  GLU169      0.1160
     68  CD        35.9030   42.5950  -37.9760 C.2   169  GLU169      0.3649
     69  OE1       35.8630   43.8430  -38.0310 O.co2 169  GLU169     -0.2457
     70  OE2       36.5000   41.9670  -37.0730 O.co2 169  GLU169     -0.2457
     71  N         39.6870   47.1750  -30.2160 N.3   185  PHE185     -0.1241
     72  CA        38.5830   48.1070  -30.4420 C.3   185  PHE185      0.1605
     73  C         38.4710   49.1180  -29.3030 C.2   185  PHE185      0.2264
     74  O         38.1260   50.2810  -29.5230 O.2   185  PHE185     -0.2867
     75  CB        37.2730   47.3200  -30.5800 C.3   185  PHE185      0.0534
     76  CG        36.0320   48.1690  -30.5280 C.ar  185  PHE185     -0.0203
     77  CD1       35.5760   48.8330  -31.6600 C.ar  185  PHE185     -0.0042
     78  CD2       35.3040   48.2750  -29.3510 C.ar  185  PHE185     -0.0042
     79  CE1       34.4140   49.5950  -31.6180 C.ar  185  PHE185     -0.0003
     80  CE2       34.1410   49.0350  -29.2980 C.ar  185  PHE185     -0.0003
     81  CZ        33.6930   49.6940  -30.4350 C.ar  185  PHE185     -0.0000
     82  N         41.2440   57.5920  -29.7690 N.3   192  ASP192     -0.1239
     83  CA        40.5390   58.5410  -30.6250 C.3   192  ASP192      0.1674
     84  C         39.8370   59.6050  -29.7970 C.2   192  ASP192      0.2266
     85  O         39.9080   60.7910  -30.1130 O.2   192  ASP192     -0.2867
     86  CB        39.5190   57.8190  -31.5130 C.3   192  ASP192      0.1410
     87  CG        40.1710   56.9170  -32.5530 C.2   192  ASP192      0.3668
     88  OD1       41.3870   56.6400  -32.4550 O.co2 192  ASP192     -0.2456
     89  OD2       39.4540   56.4790  -33.4760 O.co2 192  ASP192     -0.2456
     90  N         40.5790   63.7520  -29.6370 N.3   196  GLN196     -0.1245
     91  CA        39.4220   64.5050  -30.1070 C.3   196  GLN196      0.1566
     92  C         38.9700   65.4060  -28.9640 C.2   196  GLN196      0.2260
     93  O         38.0230   66.1790  -29.1110 O.2   196  GLN196     -0.2867
     94  CB        38.2690   63.5710  -30.4910 C.3   196  GLN196      0.0367
     95  CG        38.4310   62.8700  -31.8270 C.3   196  GLN196      0.0905
     96  CD        37.2630   61.9530  -32.1480 C.2   196  GLN196      0.2608
     97  OE1       36.1020   62.3620  -32.0930 O.2   196  GLN196     -0.2717
     98  NE2       37.5670   60.7050  -32.4850 N.am  196  GLN196     -0.0878
     99  N         37.5690   64.4890  -26.2610 N.3   198  ARG198     -0.1245
    100  CA        36.2140   64.0160  -26.0180 C.3   198  ARG198      0.1563
    101  C         36.2290   62.8340  -25.0460 C.2   198  ARG198      0.2260
    102  O         37.0800   61.9550  -25.1520 O.2   198  ARG198     -0.2867
    103  CB        35.6390   63.5670  -27.3620 C.3   198  ARG198      0.0307
    104  CG        34.1410   63.4720  -27.4470 C.3   198  ARG198      0.0489
    105  CD        33.7500   63.0320  -28.8440 C.3   198  ARG198      0.2205
    106  NE        32.3070   63.0770  -29.0590 N.pl3 198  ARG198     -0.0865
    107  CZ        31.6860   62.4890  -30.0760 C.cat 198  ARG198      0.5346
    108  NH1       32.3780   61.8040  -30.9780 N.pl3 198  ARG198      0.1354
    109  NH2       30.3710   62.5940  -30.1990 N.pl3 198  ARG198      0.1354
@<TRIPOS>BOND
     1    65    64    2
     2    64    63    1
     3    63    62    1
     4    63    66    1
     5    67    66    1
     6    67    68    1
     7    52    51    2
     8    69    68   ar
     9    68    70   ar
    10    53    50    1
    11    58    59    1
    12    58    55    1
    13    51    50    1
    14    51    54   am
    15    56    55    1
    16    56    57    2
    17    49    50    1
    18    61    59   am
    19    59    60    2
    20    55    54    1
    21    47    46    1
    22    12    11    2
    23    33    32    2
    24    89    87   ar
    25    29    27    1
    26    26    27    2
    27    26    25    1
    28    37    39   ar
    29    37    35   ar
    30    27    28    1
    31    39    40   ar
    32    24    25    1
    33    24    23    1
    34    11    10    1
    35    11    19   am
    36    46    48    1
    37    46    45    1
    38    32    31    1
    39    32    41   am
    40    87    88   ar
    41    87    86    1
    42    20    23    1
    43    20    19    1
    44    20    21    1
    45    30    31    1
    46    30    21   am
    47    98    96   am
    48    42    45    1
    49    42    41    1
    50    42    43    1
    51    34    35    1
    52    34    31    1
    53    96    97    2
    54    96    95    1
    55    10    13    1
    56    10     9    1
    57    35    36   ar
    58    21    22    2
    59    95    94    1
    60    13    14    1
    61    77    79   ar
    62    77    76   ar
    63    40    38   ar
    64    79    81   ar
    65    86    83    1
    66    43    44    2
    67    15    14   ar
    68    15    17   ar
    69    14    16   ar
    70   108   107    1
    71    36    38   ar
    72    83    84    1
    73    83    82    1
    74    75    76    1
    75    75    72    1
    76    76    78   ar
    77    94    91    1
    78    17    18   ar
    79     7     6    1
    80    72    71    1
    81    72    73    1
    82    81    80   ar
    83    16    18   ar
    84   109   107    1
    85    85    84    2
    86    91    90    1
    87    91    92    1
    88   107   106    2
    89    74    73    2
    90     8     6    1
    91    78    80   ar
    92     6     5    1
    93    93    92    2
    94   106   105    1
    95   105   104    1
    96     5     2    1
    97     2     3    1
    98     2     1    1
    99   104   103    1
   100   103   100    1
   101     3     4    2
   102    99   100    1
   103   100   101    1
   104   102   101    2
