@<TRIPOS>MOLECULE
tmp/1n2vA00.pdb
 121 110 0 0 0
SMALL
GASTEIGER

@<TRIPOS>ATOM
      1  N          9.4200   12.1900   22.1980 N.3    92  ASP92      -0.1225
      2  CA        10.3430   13.1510   22.7890 C.3    92  ASP92       0.1805
      3  C          9.5530   13.8120   23.9170 C.2    92  ASP92       0.2598
      4  O          8.3500   13.6040   24.0270 O.2    92  ASP92      -0.2718
      5  CB        10.8180   14.1970   21.7680 C.3    92  ASP92       0.1424
      6  CG         9.6770   14.9000   21.0570 C.2    92  ASP92       0.3668
      7  OD1        8.5430   14.9150   21.5750 O.co2  92  ASP92      -0.2456
      8  OD2        9.9260   15.4600   19.9730 O.co2  92  ASP92      -0.2456
      9  N         10.2150   14.6040   24.7490 N.am   93  SER93      -0.1938
     10  CA         9.5440   15.2370   25.8780 C.3    93  SER93       0.2055
     11  C          8.7580   16.5130   25.5650 C.2    93  SER93       0.2643
     12  O          7.9430   16.9500   26.3750 O.2    93  SER93      -0.2714
     13  CB        10.5680   15.5270   26.9730 C.3    93  SER93       0.2130
     14  OG        11.6210   16.3310   26.4760 O.3    93  SER93      -0.2179
     15  N          9.0050   17.1130   24.4060 N.am   94  GLY94      -0.1954
     16  CA         8.2990   18.3310   24.0470 C.3    94  GLY94       0.1869
     17  C          9.0810   19.5750   24.4250 C.2    94  GLY94       0.2309
     18  O          8.8880   20.6410   23.8450 O.2    94  GLY94      -0.2863
     19  N         12.1280   20.5280   23.8150 N.3    96  TYR96      -0.1227
     20  CA        12.8690   21.1030   22.6980 C.3    96  TYR96       0.1736
     21  C         12.0080   21.9920   21.8090 C.2    96  TYR96       0.2595
     22  O         12.2750   23.1830   21.6710 O.2    96  TYR96      -0.2718
     23  CB        13.4740   19.9950   21.8410 C.3    96  TYR96       0.0548
     24  CG        14.3740   20.4920   20.7310 C.ar   96  TYR96      -0.0200
     25  CD1       15.7340   20.7020   20.9520 C.ar   96  TYR96      -0.0009
     26  CD2       13.8650   20.7490   19.4560 C.ar   96  TYR96      -0.0009
     27  CE1       16.5720   21.1540   19.9280 C.ar   96  TYR96       0.0417
     28  CE2       14.6920   21.2040   18.4250 C.ar   96  TYR96       0.0417
     29  CZ        16.0460   21.4030   18.6680 C.ar   96  TYR96       0.1957
     30  OH        16.8740   21.8410   17.6530 O.3    96  TYR96      -0.2866
     31  N         10.9840   21.4020   21.1990 N.am   97  GLN97      -0.1979
     32  CA        10.0920   22.1360   20.3070 C.3    97  GLN97       0.1601
     33  C          9.4850   23.3740   20.9530 C.2    97  GLN97       0.2287
     34  O          9.2730   24.3820   20.2810 O.2    97  GLN97      -0.2864
     35  CB         8.9650   21.2310   19.8010 C.3    97  GLN97       0.0394
     36  CG         9.4020   20.1060   18.8730 C.3    97  GLN97       0.0908
     37  CD        10.3430   19.1290   19.5410 C.2    97  GLN97       0.2608
     38  OE1       10.2300   18.8620   20.7400 O.2    97  GLN97      -0.2717
     39  NE2       11.2700   18.5740   18.7660 N.am   97  GLN97      -0.0878
     40  N         13.7940   17.8340   29.4240 N.3   146  ASP146     -0.1239
     41  CA        15.0000   18.6140   29.6390 C.3   146  ASP146      0.1674
     42  C         14.9570   19.9670   28.9570 C.2   146  ASP146      0.2266
     43  O         13.9400   20.3660   28.3930 O.2   146  ASP146     -0.2867
     44  CB        16.2120   17.8300   29.1290 C.3   146  ASP146      0.1410
     45  CG        16.2250   17.6900   27.6120 C.2   146  ASP146      0.3668
     46  OD1       15.1470   17.7750   26.9880 O.co2 146  ASP146     -0.2456
     47  OD2       17.3170   17.4830   27.0410 O.co2 146  ASP146     -0.2456
     48  N         17.1630   21.9060   26.1430 N.3   148  CYS148     -0.1235
     49  CA        18.2190   21.8280   25.1300 C.3   148  CYS148      0.1677
     50  C         19.0460   23.1140   25.1040 C.2   148  CYS148      0.2270
     51  O         18.5410   24.1860   24.7660 O.2   148  CYS148     -0.2867
     52  CB        17.6110   21.5670   23.7450 C.3   148  CYS148      0.0956
     53  SG        18.8180   21.3040   22.4080 S.3   148  CYS148     -0.0801
     54  N         18.6720   12.1890   29.2590 N.3   191  ILE191     -0.1245
     55  CA        19.3970   12.8840   28.1980 C.3   191  ILE191      0.1561
     56  C         20.5940   13.6700   28.7120 C.2   191  ILE191      0.2260
     57  O         20.4570   14.5410   29.5700 O.2   191  ILE191     -0.2867
     58  CB        18.5020   13.8810   27.4480 C.3   191  ILE191      0.0252
     59  CG1       17.2020   13.2040   27.0070 C.3   191  ILE191      0.0019
     60  CG2       19.2590   14.4300   26.2380 C.3   191  ILE191      0.0019
     61  CD1       16.1710   14.1760   26.4360 C.3   191  ILE191      0.0001
     62  N         23.4790   16.4220   28.6570 N.3   193  GLN193     -0.1245
     63  CA        23.6610   17.7740   28.1390 C.3   193  GLN193      0.1566
     64  C         25.0940   18.1870   28.4580 C.2   193  GLN193      0.2260
     65  O         25.9290   17.3400   28.7720 O.2   193  GLN193     -0.2867
     66  CB        22.6700   18.7470   28.7870 C.3   193  GLN193      0.0367
     67  CG        21.2190   18.5560   28.3560 C.3   193  GLN193      0.0905
     68  CD        21.0300   18.6750   26.8540 C.2   193  GLN193      0.2608
     69  OE1       21.6440   19.5200   26.2070 O.2   193  GLN193     -0.2717
     70  NE2       20.1640   17.8350   26.2950 N.am  193  GLN193     -0.0878
     71  N         22.1040   14.6160   24.0470 N.3   219  GLY219     -0.1210
     72  CA        21.3290   15.7440   23.5780 C.3   219  GLY219      0.1956
     73  C         22.1950   16.9450   23.2690 C.2   219  GLY219      0.2612
     74  O         23.4090   16.9300   23.4930 O.2   219  GLY219     -0.2717
     75  N         21.5590   17.9760   22.7270 N.am  220  GLY220     -0.1956
     76  CA        22.2480   19.2110   22.4050 C.3   220  GLY220      0.1869
     77  C         23.2410   19.2010   21.2590 C.2   220  GLY220      0.2309
     78  O         24.0110   20.1510   21.1250 O.2   220  GLY220     -0.2863
     79  N         22.2310   18.5000   17.9170 N.3   222  ALA222     -0.1245
     80  CA        21.5610   18.7650   16.6520 C.3   222  ALA222      0.1562
     81  C         21.2840   20.2610   16.6780 C.2   222  ALA222      0.2260
     82  O         20.1310   20.6940   16.6090 O.2   222  ALA222     -0.2867
     83  CB        20.2620   17.9820   16.5640 C.3   222  ALA222      0.0290
     84  N         20.0300   12.2230   19.4770 N.3   250  MET250     -0.1230
     85  CA        18.8210   12.9180   19.0600 C.3   250  MET250      0.1702
     86  C         18.9760   13.9090   17.9060 C.2   250  MET250      0.2592
     87  O         19.9190   14.6970   17.8660 O.2   250  MET250     -0.2718
     88  CB        18.1970   13.6330   20.2710 C.3   250  MET250      0.0401
     89  CG        17.8150   12.7030   21.4290 C.3   250  MET250      0.0596
     90  SD        17.0470   13.5390   22.8570 S.3   250  MET250     -0.1393
     91  CE        15.3370   13.3370   22.4900 C.3   250  MET250      0.0692
     92  N         18.0370   13.8430   16.9670 N.am  251  GLY251     -0.1957
     93  CA        18.0270   14.7600   15.8400 C.3   251  GLY251      0.1869
     94  C         19.1460   14.6710   14.8220 C.2   251  GLY251      0.2309
     95  O         19.3520   15.6070   14.0550 O.2   251  GLY251     -0.2863
     96  N         17.2040    9.3880   14.7840 N.3   270  ASP270     -0.1239
     97  CA        15.9010    9.8720   14.3560 C.3   270  ASP270      0.1674
     98  C         16.1330   11.1520   13.5710 C.2   270  ASP270      0.2266
     99  O         17.0860   11.8830   13.8430 O.2   270  ASP270     -0.2867
    100  CB        15.0030   10.1880   15.5550 C.3   270  ASP270      0.1410
    101  CG        15.3340   11.5280   16.1940 C.2   270  ASP270      0.3668
    102  OD1       16.1830   11.5780   17.1010 O.co2 270  ASP270     -0.2456
    103  OD2       14.7520   12.5430   15.7710 O.co2 270  ASP270     -0.2456
    104  N         13.9020   14.0550   10.5670 N.3   272  VAL272     -0.1245
    105  CA        12.8350   14.3670    9.6230 C.3   272  VAL272      0.1561
    106  C         13.4170   14.5640    8.2300 C.2   272  VAL272      0.2260
    107  O         12.6820   14.6700    7.2490 O.2   272  VAL272     -0.2867
    108  CB        12.0830   15.6460   10.0370 C.3   272  VAL272      0.0252
    109  CG1       11.2520   15.3820   11.2810 C.3   272  VAL272      0.0019
    110  CG2       13.0790   16.7590   10.3050 C.3   272  VAL272      0.0019
    111  N         11.1220   15.1820    5.0740 N.3   276  ARG276     -0.1245
    112  CA        11.1610   16.5080    4.4720 C.3   276  ARG276      0.1563
    113  C         11.8040   16.4410    3.0880 C.2   276  ARG276      0.2260
    114  O         11.4360   17.1990    2.1900 O.2   276  ARG276     -0.2867
    115  CB        11.9370   17.4810    5.3640 C.3   276  ARG276      0.0307
    116  CG        13.3500   17.0430    5.6990 C.3   276  ARG276      0.0489
    117  CD        14.0580   18.0800    6.5630 C.3   276  ARG276      0.2205
    118  NE        13.2550   18.4750    7.7180 N.pl3 276  ARG276     -0.0865
    119  CZ        13.6520   19.3390    8.6470 C.cat 276  ARG276      0.5346
    120  NH1       14.8500   19.9020    8.5630 N.pl3 276  ARG276      0.1354
    121  NH2       12.8490   19.6460    9.6570 N.pl3 276  ARG276      0.1354
@<TRIPOS>BOND
     1   114   113    2
     2   113   112    1
     3   112   111    1
     4   112   115    1
     5   115   116    1
     6   116   117    1
     7   117   118    1
     8   107   106    2
     9   118   119    2
    10   106   105    1
    11   120   119    1
    12   119   121    1
    13   105   108    1
    14   105   104    1
    15   108   110    1
    16   108   109    1
    17    98    99    2
    18    98    97    1
    19    95    94    2
    20    97    96    1
    21    97   100    1
    22    94    93    1
    23   100   101    1
    24   103   101   ar
    25    93    92    1
    26   101   102   ar
    27    83    80    1
    28    82    81    2
    29    80    81    1
    30    80    79    1
    31    92    86   am
    32    30    29    1
    33    87    86    2
    34    86    85    1
    35    28    29   ar
    36    28    26   ar
    37    29    27   ar
    38    39    37   am
    39    36    37    1
    40    36    35    1
    41    85    84    1
    42    85    88    1
    43    26    24   ar
    44    37    38    2
    45    35    32    1
    46    27    25   ar
    47     8     6   ar
    48    88    89    1
    49    34    33    2
    50    32    33    1
    51    32    31    1
    52    24    25   ar
    53    24    23    1
    54     6     7   ar
    55     6     5    1
    56    78    77    2
    57    31    21   am
    58    77    76    1
    59    89    90    1
    60    22    21    2
    61     5     2    1
    62    21    20    1
    63    23    20    1
    64     1     2    1
    65    76    75    1
    66    53    52    1
    67    91    90    1
    68    20    19    1
    69    75    73   am
    70     2     3    1
    71    73    74    2
    72    73    72    1
    73    72    71    1
    74    52    49    1
    75    18    17    2
    76     3     4    2
    77     3     9   am
    78    16    15    1
    79    16    17    1
    80    15    11   am
    81     9    10    1
    82    51    50    2
    83    50    49    1
    84    49    48    1
    85    11    10    1
    86    11    12    2
    87    10    13    1
    88    69    68    2
    89    60    58    1
    90    70    68   am
    91    61    59    1
    92    14    13    1
    93    68    67    1
    94    46    45   ar
    95    59    58    1
    96    47    45   ar
    97    58    55    1
    98    45    44    1
    99    63    64    1
   100    63    62    1
   101    63    66    1
   102    55    56    1
   103    55    54    1
   104    67    66    1
   105    43    42    2
   106    64    65    2
   107    56    57    2
   108    42    41    1
   109    44    41    1
   110    40    41    1
