@<TRIPOS>MOLECULE
tmp/1n31A00.pdb
 126 118 0 0 0
SMALL
GASTEIGER

@<TRIPOS>ATOM
      1  N        -61.7010  -14.9990  -16.5530 N.3    19  GLY19      -0.1210
      2  CA       -61.4530  -14.7050  -17.9570 C.3    19  GLY19       0.1956
      3  C        -61.2710  -13.2140  -18.2350 C.2    19  GLY19       0.2612
      4  O        -60.7830  -12.8470  -19.2970 O.2    19  GLY19      -0.2717
      5  N        -61.6880  -12.3670  -17.2950 N.am   20  GLY20      -0.1956
      6  CA       -61.5310  -10.9260  -17.4450 C.3    20  GLY20       0.1869
      7  C        -60.1800  -10.6060  -16.8180 C.2    20  GLY20       0.2309
      8  O        -59.2950  -10.0190  -17.4470 O.2    20  GLY20      -0.2863
      9  N        -49.9940   -7.4480  -23.0580 N.3    80  ASN80      -0.1225
     10  CA       -51.3360   -8.0120  -23.1390 C.3    80  ASN80       0.1785
     11  C        -51.5170   -8.8250  -24.4320 C.2    80  ASN80       0.2597
     12  O        -50.6500   -8.8450  -25.2940 O.2    80  ASN80      -0.2718
     13  CB       -52.3650   -6.8520  -23.1230 C.3    80  ASN80       0.1169
     14  CG       -52.0190   -5.7580  -24.1320 C.2    80  ASN80       0.2627
     15  OD1      -51.7610   -6.0510  -25.3040 O.2    80  ASN80      -0.2716
     16  ND2      -52.0180   -4.5060  -23.6930 N.am   80  ASN80      -0.0877
     17  N        -52.6690   -9.4630  -24.5860 N.am   81  VAL81      -0.1966
     18  CA       -52.9370  -10.2540  -25.7850 C.3    81  VAL81       0.1727
     19  C        -52.9180   -9.4290  -27.0790 C.2    81  VAL81       0.2616
     20  O        -52.3040   -9.8220  -28.0730 O.2    81  VAL81      -0.2715
     21  CB       -54.3270  -10.9260  -25.7200 C.3    81  VAL81       0.0290
     22  CG1      -54.5660  -11.7670  -26.9690 C.3    81  VAL81       0.0023
     23  CG2      -54.4380  -11.7990  -24.4670 C.3    81  VAL81       0.0023
     24  N        -53.6120   -8.2990  -27.0670 N.am   82  THR82      -0.1951
     25  CA       -53.7420   -7.4660  -28.2510 C.3    82  THR82       0.1897
     26  C        -52.4410   -7.0410  -28.9170 C.2    82  THR82       0.2313
     27  O        -52.3270   -7.0660  -30.1480 O.2    82  THR82      -0.2863
     28  CB       -54.5870   -6.2330  -27.9440 C.3    82  THR82       0.1794
     29  OG1      -55.8370   -6.6580  -27.4070 O.3    82  THR82      -0.2208
     30  CG2      -54.8460   -5.4330  -29.2070 C.3    82  THR82       0.0378
     31  N        -62.5490  -10.8580  -30.8880 N.3   107  HIS107     -0.1241
     32  CA       -62.6070   -9.6550  -30.0810 C.3   107  HIS107      0.1621
     33  C        -62.6680   -8.3890  -30.9520 C.2   107  HIS107      0.2264
     34  O        -61.9780   -8.2820  -31.9580 O.2   107  HIS107     -0.2867
     35  CB       -61.3700   -9.6170  -29.1750 C.3   107  HIS107      0.0745
     36  CG       -61.5350   -8.7570  -27.9630 C.ar  107  HIS107      0.0817
     37  ND1      -62.3340   -9.1170  -26.8950 N.ar  107  HIS107     -0.2268
     38  CD2      -60.9950   -7.5560  -27.6440 C.ar  107  HIS107      0.1154
     39  CE1      -62.2770   -8.1740  -25.9690 C.ar  107  HIS107      0.1986
     40  NE2      -61.4720   -7.2150  -26.3980 N.ar  107  HIS107     -0.2212
     41  N        -59.2890   -6.8330  -31.9260 N.3   110  ILE110     -0.1245
     42  CA       -58.5600   -7.5190  -32.9880 C.3   110  ILE110      0.1561
     43  C        -59.1170   -7.1020  -34.3630 C.2   110  ILE110      0.2260
     44  O        -58.3710   -6.7300  -35.2760 O.2   110  ILE110     -0.2867
     45  CB       -58.6540   -9.0540  -32.7980 C.3   110  ILE110      0.0252
     46  CG1      -57.5630   -9.5330  -31.8310 C.3   110  ILE110      0.0019
     47  CG2      -58.4490   -9.7700  -34.1370 C.3   110  ILE110      0.0019
     48  CD1      -57.4190   -8.7250  -30.5320 C.3   110  ILE110      0.0001
     49  N        -59.7560  -17.4860  -32.2640 N.3   157  SER157     -0.1217
     50  CA       -59.5220  -17.6300  -30.8220 C.3   157  SER157      0.1889
     51  C        -59.5700  -19.1310  -30.5390 C.2   157  SER157      0.2288
     52  O        -60.5030  -19.8100  -30.9740 O.2   157  SER157     -0.2866
     53  CB       -60.6070  -16.8930  -30.0120 C.3   157  SER157      0.2089
     54  OG       -60.5040  -15.4870  -30.1920 O.3   157  SER157     -0.2183
     55  N        -60.0880  -20.6200  -27.7470 N.3   159  LEU159     -0.1245
     56  CA       -61.2340  -20.7840  -26.8540 C.3   159  LEU159      0.1561
     57  C        -62.0060  -19.4750  -27.0130 C.2   159  LEU159      0.2260
     58  O        -61.4760  -18.3890  -26.7300 O.2   159  LEU159     -0.2867
     59  CB       -60.7440  -20.9820  -25.4130 C.3   159  LEU159      0.0270
     60  CG       -61.7700  -20.9360  -24.2730 C.3   159  LEU159      0.0019
     61  CD1      -62.9070  -21.8910  -24.5560 C.3   159  LEU159      0.0001
     62  CD2      -61.0840  -21.3040  -22.9540 C.3   159  LEU159      0.0001
     63  N        -64.2650  -16.4230  -26.3930 N.3   161  TRP161     -0.1241
     64  CA       -64.5990  -15.6400  -25.2130 C.3   161  TRP161      0.1605
     65  C        -66.1070  -15.4910  -25.0220 C.2   161  TRP161      0.2264
     66  O        -66.5720  -15.2960  -23.9130 O.2   161  TRP161     -0.2867
     67  CB       -63.9530  -14.2420  -25.3130 C.3   161  TRP161      0.0550
     68  CG       -64.6450  -13.2780  -26.2680 C.ar  161  TRP161      0.0003
     69  CD1      -65.0390  -13.5330  -27.5460 C.ar  161  TRP161      0.0946
     70  CD2      -65.0190  -11.9190  -26.0010 C.ar  161  TRP161      0.0152
     71  NE1      -65.6380  -12.4270  -28.0920 N.ar  161  TRP161     -0.2442
     72  CE2      -65.6400  -11.4190  -27.1670 C.ar  161  TRP161      0.0810
     73  CE3      -64.8860  -11.0760  -24.8900 C.ar  161  TRP161      0.0012
     74  CZ2      -66.1340  -10.1040  -27.2590 C.ar  161  TRP161      0.0191
     75  CZ3      -65.3710   -9.7740  -24.9750 C.ar  161  TRP161      0.0001
     76  CH2      -65.9900   -9.2990  -26.1550 C.ar  161  TRP161      0.0015
     77  N        -55.5510  -16.2660  -31.1760 N.3   190  ASP190     -0.1239
     78  CA       -55.7530  -15.3800  -30.0270 C.3   190  ASP190      0.1674
     79  C        -56.0090  -16.3380  -28.8430 C.2   190  ASP190      0.2266
     80  O        -57.0560  -16.9810  -28.7910 O.2   190  ASP190     -0.2867
     81  CB       -56.9810  -14.4760  -30.2760 C.3   190  ASP190      0.1410
     82  CG       -57.3620  -13.6180  -29.0690 C.2   190  ASP190      0.3668
     83  OD1      -58.0300  -12.5800  -29.2960 O.co2 190  ASP190     -0.2456
     84  OD2      -57.0310  -13.9750  -27.9060 O.co2 190  ASP190     -0.2456
     85  N        -56.3990  -15.6100  -25.4540 N.3   192  ALA192     -0.1231
     86  CA       -56.7480  -14.8980  -24.2100 C.3   192  ALA192      0.1694
     87  C        -57.4010  -15.7970  -23.1620 C.2   192  ALA192      0.2591
     88  O        -57.1800  -15.6360  -21.9680 O.2   192  ALA192     -0.2718
     89  CB       -57.6730  -13.7430  -24.5160 C.3   192  ALA192      0.0304
     90  N        -58.2150  -16.7350  -23.6370 N.am  193  GLN193     -0.1979
     91  CA       -58.9250  -17.6480  -22.7780 C.3   193  GLN193      0.1601
     92  C        -58.2340  -19.0050  -22.6730 C.2   193  GLN193      0.2287
     93  O        -58.2520  -19.6180  -21.6170 O.2   193  GLN193     -0.2864
     94  CB       -60.3460  -17.8460  -23.2960 C.3   193  GLN193      0.0394
     95  CG       -61.1250  -16.5730  -23.4490 C.3   193  GLN193      0.0908
     96  CD       -61.2550  -15.8220  -22.1370 C.2   193  GLN193      0.2608
     97  OE1      -61.4450  -16.4360  -21.0640 O.2   193  GLN193     -0.2717
     98  NE2      -61.1720  -14.4950  -22.2020 N.am  193  GLN193     -0.0878
     99  N        -51.9520  -13.4660  -22.7540 N.3   213  THR213     -0.1218
    100  CA       -51.7200  -12.4980  -21.6860 C.3   213  THR213      0.1862
    101  C        -51.5350  -13.2480  -20.3790 C.2   213  THR213      0.2287
    102  O        -51.9130  -14.4130  -20.2670 O.2   213  THR213     -0.2866
    103  CB       -52.9100  -11.5030  -21.5160 C.3   213  THR213      0.1770
    104  OG1      -52.5000  -10.4410  -20.6570 O.3   213  THR213     -0.2211
    105  CG2      -54.1320  -12.2180  -20.8600 C.3   213  THR213      0.0375
    106  N        -52.5900  -11.8770  -17.2770 N.3   215  HIS215     -0.1241
    107  CA       -53.5110  -11.4020  -16.2380 C.3   215  HIS215      0.1621
    108  C        -54.8790  -12.0550  -16.1530 C.2   215  HIS215      0.2264
    109  O        -55.7110  -11.6570  -15.3370 O.2   215  HIS215     -0.2867
    110  CB       -53.7070   -9.8790  -16.3540 C.3   215  HIS215      0.0745
    111  CG       -54.6230   -9.4680  -17.4640 C.ar  215  HIS215      0.0817
    112  ND1      -54.2310   -9.4570  -18.7830 N.ar  215  HIS215     -0.2268
    113  CD2      -55.9090   -9.0340  -17.4490 C.ar  215  HIS215      0.1154
    114  CE1      -55.2310   -9.0280  -19.5340 C.ar  215  HIS215      0.1986
    115  NE2      -56.2620   -8.7650  -18.7490 N.ar  215  HIS215     -0.2212
    116  N        -70.0500  -11.6650  -16.0710 N.3   353  ARG353     -0.1245
    117  CA       -70.0380  -10.5660  -17.0440 C.3   353  ARG353      0.1563
    118  C        -71.0150  -10.7570  -18.1750 C.2   353  ARG353      0.2260
    119  O        -71.4160  -11.8800  -18.4880 O.2   353  ARG353     -0.2867
    120  CB       -68.6400  -10.3430  -17.6360 C.3   353  ARG353      0.0307
    121  CG       -68.2280  -11.3410  -18.7090 C.3   353  ARG353      0.0489
    122  CD       -67.1010  -10.7680  -19.5620 C.3   353  ARG353      0.2205
    123  NE       -67.5890   -9.6640  -20.3920 N.pl3 353  ARG353     -0.0865
    124  CZ       -66.8270   -8.8660  -21.1430 C.cat 353  ARG353      0.5346
    125  NH1      -65.5110   -9.0340  -21.1800 N.pl3 353  ARG353      0.1354
    126  NH2      -67.3840   -7.8960  -21.8660 N.pl3 353  ARG353      0.1354
@<TRIPOS>BOND
     1    44    43    2
     2    43    42    1
     3    47    45    1
     4    42    45    1
     5    42    41    1
     6    45    46    1
     7    49    50    1
     8    34    33    2
     9    46    48    1
    10    77    78    1
    11    52    51    2
    12    33    32    1
    13    31    32    1
    14    50    51    1
    15    50    53    1
    16    81    78    1
    17    81    82    1
    18    54    53    1
    19    27    26    2
    20    32    35    1
    21    78    79    1
    22    83    82   ar
    23    30    28    1
    24    35    36    1
    25    82    84   ar
    26    26    25    1
    27    79    80    2
    28    25    28    1
    29    25    24    1
    30    71    69   ar
    31    71    72   ar
    32    20    19    2
    33    36    38   ar
    34    36    37   ar
    35    28    29    1
    36    55    56    1
    37    38    40   ar
    38    69    68   ar
    39    74    72   ar
    40    74    76   ar
    41    72    70   ar
    42    19    24   am
    43    19    18    1
    44    57    56    1
    45    57    58    2
    46    22    21    1
    47    37    39   ar
    48    56    59    1
    49    40    39   ar
    50    63    64    1
    51    68    70   ar
    52    68    67    1
    53    76    75   ar
    54    70    73   ar
    55    18    21    1
    56    18    17    1
    57    21    23    1
    58    85    86    1
    59    59    60    1
    60    67    64    1
    61    15    14    2
    62    12    11    2
    63    64    65    1
    64    65    66    2
    65    75    73   ar
    66    17    11   am
    67    61    60    1
    68    89    86    1
    69    11    10    1
    70    60    62    1
    71    86    87    1
    72    14    16   am
    73    14    13    1
    74    90    87   am
    75    90    91    1
    76    95    94    1
    77    95    96    1
    78    94    91    1
    79    87    88    2
    80    10    13    1
    81    10     9    1
    82    91    92    1
    83    99   100    1
    84    92    93    2
    85    98    96   am
    86    96    97    2
    87   126   124    1
    88   100   103    1
    89   100   101    1
    90   103   105    1
    91   103   104    1
    92   125   124    1
    93   124   123    2
    94   123   122    1
    95   101   102    2
    96   122   121    1
    97   114   112   ar
    98   114   115   ar
    99     4     3    2
   100   112   111   ar
   101   115   113   ar
   102   121   120    1
   103   119   118    2
   104     3     2    1
   105     3     5   am
   106   118   117    1
   107     2     1    1
   108   120   117    1
   109   111   113   ar
   110   111   110    1
   111     8     7    2
   112     6     5    1
   113     6     7    1
   114   106   107    1
   115   117   116    1
   116   110   107    1
   117   107   108    1
   118   108   109    2
