@<TRIPOS>MOLECULE
tmp/1n3iC00.pdb
 139 132 0 0 0
SMALL
GASTEIGER

@<TRIPOS>ATOM
      1  N         58.7040   54.9100   44.2960 N.3    30  SER30      -0.1217
      2  CA        60.1580   54.8060   44.2020 C.3    30  SER30       0.1889
      3  C         60.7090   55.7020   43.1000 C.2    30  SER30       0.2288
      4  O         60.2480   55.6550   41.9550 O.2    30  SER30      -0.2866
      5  CB        60.5710   53.3580   43.9260 C.3    30  SER30       0.2089
      6  OG        60.2720   52.5160   45.0310 O.3    30  SER30      -0.2183
      7  N         54.7610   48.6690   51.1890 N.3    84  HIS84      -0.1241
      8  CA        54.4350   47.6460   50.2100 C.3    84  HIS84       0.1621
      9  C         54.0670   46.3290   50.8700 C.2    84  HIS84       0.2264
     10  O         54.4430   46.0640   52.0150 O.2    84  HIS84      -0.2867
     11  CB        55.6250   47.4250   49.2760 C.3    84  HIS84       0.0745
     12  CG        56.2160   48.6930   48.7440 C.ar   84  HIS84       0.0817
     13  ND1       56.9720   49.5460   49.5200 N.ar   84  HIS84      -0.2268
     14  CD2       56.1510   49.2600   47.5160 C.ar   84  HIS84       0.1154
     15  CE1       57.3470   50.5840   48.7930 C.ar   84  HIS84       0.1986
     16  NE2       56.8610   50.4350   47.5740 N.ar   84  HIS84      -0.2212
     17  N         55.2200   43.5050   50.2420 N.3    86  TYR86      -0.1241
     18  CA        56.4130   42.7090   50.5030 C.3    86  TYR86       0.1605
     19  C         57.0540   43.0420   51.8470 C.2    86  TYR86       0.2264
     20  O         57.9370   42.3270   52.3170 O.2    86  TYR86      -0.2867
     21  CB        57.4340   42.8480   49.3560 C.3    86  TYR86       0.0534
     22  CG        57.9350   44.2470   49.0560 C.ar   86  TYR86      -0.0201
     23  CD1       58.6950   44.9590   49.9850 C.ar   86  TYR86      -0.0009
     24  CD2       57.6880   44.8390   47.8170 C.ar   86  TYR86      -0.0009
     25  CE1       59.2040   46.2370   49.6840 C.ar   86  TYR86       0.0417
     26  CE2       58.1900   46.1110   47.5050 C.ar   86  TYR86       0.0417
     27  CZ        58.9450   46.8020   48.4410 C.ar   86  TYR86       0.1957
     28  OH        59.4280   48.0590   48.1370 O.3    86  TYR86      -0.2866
     29  N         57.3450   53.4280   40.3050 N.3   114  ALA114     -0.1231
     30  CA        58.4460   53.1430   39.4060 C.3   114  ALA114      0.1694
     31  C         58.0100   51.8130   38.8150 C.2   114  ALA114      0.2592
     32  O         57.2680   51.0690   39.4520 O.2   114  ALA114     -0.2718
     33  CB        59.7430   52.9740   40.1840 C.3   114  ALA114      0.0304
     34  N         58.4430   51.5170   37.5990 N.am  115  ALA115     -0.1966
     35  CA        58.0670   50.2580   36.9820 C.3   115  ALA115      0.1728
     36  C         59.0950   49.8410   35.9540 C.2   115  ALA115      0.2616
     37  O         59.8420   50.6690   35.4350 O.2   115  ALA115     -0.2715
     38  CB        56.6970   50.3830   36.3210 C.3   115  ALA115      0.0334
     39  N         59.1480   48.5430   35.6860 N.am  116  GLY116     -0.1955
     40  CA        60.0540   48.0430   34.6750 C.3   116  GLY116      0.1869
     41  C         59.2460   48.0820   33.3920 C.2   116  GLY116      0.2309
     42  O         58.0480   47.8000   33.4170 O.2   116  GLY116     -0.2863
     43  N         59.6070   40.9480   47.0220 N.3   180  PRO180     -0.2116
     44  CA        60.4620   42.0670   46.6180 C.3   180  PRO180      0.1372
     45  C         61.5370   41.7260   45.5870 C.2   180  PRO180      0.2244
     46  O         62.2560   42.6090   45.1220 O.2   180  PRO180     -0.2868
     47  CB        61.0630   42.5230   47.9410 C.3   180  PRO180      0.0268
     48  CG        61.3030   41.2140   48.6310 C.3   180  PRO180      0.0207
     49  CD        60.0370   40.4120   48.3300 C.3   180  PRO180      0.0892
     50  N         63.1170   40.8990   42.0160 N.3   182  TYR182     -0.1227
     51  CA        62.7430   41.3330   40.6770 C.3   182  TYR182      0.1736
     52  C         62.3730   40.0710   39.8920 C.2   182  TYR182      0.2595
     53  O         62.6250   38.9600   40.3550 O.2   182  TYR182     -0.2718
     54  CB        63.9030   42.0660   40.0090 C.3   182  TYR182      0.0548
     55  CG        64.2500   43.3830   40.6690 C.ar  182  TYR182     -0.0200
     56  CD1       65.4730   43.5600   41.3050 C.ar  182  TYR182     -0.0009
     57  CD2       63.3600   44.4660   40.6370 C.ar  182  TYR182     -0.0009
     58  CE1       65.8150   44.7820   41.8920 C.ar  182  TYR182      0.0417
     59  CE2       63.6940   45.7000   41.2240 C.ar  182  TYR182      0.0417
     60  CZ        64.9270   45.8450   41.8480 C.ar  182  TYR182      0.1957
     61  OH        65.2880   47.0440   42.4270 O.3   182  TYR182     -0.2866
     62  N         61.7820   40.2390   38.7130 N.am  183  GLU183     -0.1979
     63  CA        61.3510   39.1060   37.8960 C.3   183  GLU183      0.1602
     64  C         62.4700   38.4450   37.0970 C.2   183  GLU183      0.2287
     65  O         63.4720   39.0780   36.7610 O.2   183  GLU183     -0.2864
     66  CB        60.2650   39.5480   36.9040 C.3   183  GLU183      0.0415
     67  CG        59.0370   40.2310   37.5070 C.3   183  GLU183      0.1163
     68  CD        59.3560   41.5660   38.1470 C.2   183  GLU183      0.3649
     69  OE1       60.1150   42.3540   37.5440 O.co2 183  GLU183     -0.2457
     70  OE2       58.8360   41.8360   39.2480 O.co2 183  GLU183     -0.2457
     71  N         55.6890   46.5450   34.8960 N.3   199  VAL199     -0.1231
     72  CA        55.6790   45.6190   36.0270 C.3   199  VAL199      0.1692
     73  C         56.1180   46.3410   37.3040 C.2   199  VAL199      0.2593
     74  O         57.0860   47.1030   37.2950 O.2   199  VAL199     -0.2718
     75  CB        56.6000   44.3920   35.7740 C.3   199  VAL199      0.0266
     76  CG1       58.0460   44.8400   35.5810 C.3   199  VAL199      0.0020
     77  CG2       56.4900   43.4160   36.9400 C.3   199  VAL199      0.0020
     78  N         55.3890   46.1110   38.3950 N.am  200  GLY200     -0.1942
     79  CA        55.7170   46.7590   39.6520 C.3   200  GLY200      0.2014
     80  C         55.3270   45.9230   40.8530 C.2   200  GLY200      0.2638
     81  O         54.8790   44.7850   40.7010 O.2   200  GLY200     -0.2714
     82  N         55.4730   46.4950   42.0470 N.am  201  MET201     -0.1976
     83  CA        55.1590   45.7740   43.2790 C.3   201  MET201      0.1605
     84  C         54.2460   46.5380   44.2340 C.2   201  MET201      0.2287
     85  O         54.3290   46.3570   45.4510 O.2   201  MET201     -0.2864
     86  CB        56.4530   45.4210   44.0220 C.3   201  MET201      0.0413
     87  CG        57.5220   44.7740   43.1650 C.3   201  MET201      0.0598
     88  SD        59.0510   44.5640   44.1020 S.3   201  MET201     -0.1393
     89  CE        60.1180   43.8530   42.8410 C.3   201  MET201      0.0692
     90  N         61.7090   53.1270   35.1380 N.3   224  THR224     -0.1203
     91  CA        63.0380   53.3240   35.7110 C.3   224  THR224      0.1994
     92  C         64.0600   52.3390   35.1650 C.2   224  THR224      0.2617
     93  O         65.2550   52.4700   35.4240 O.2   224  THR224     -0.2717
     94  CB        63.0040   53.1890   37.2460 C.3   224  THR224      0.1784
     95  OG1       62.3830   51.9480   37.6030 O.3   224  THR224     -0.2211
     96  CG2       62.2270   54.3430   37.8660 C.3   224  THR224      0.0376
     97  N         63.5830   51.3550   34.4120 N.am  225  ASN225     -0.1974
     98  CA        64.4480   50.3370   33.8240 C.3   225  ASN225      0.1688
     99  C         63.6210   49.4770   32.8870 C.2   225  ASN225      0.2292
    100  O         62.4020   49.4170   33.0110 O.2   225  ASN225     -0.2864
    101  CB        65.0220   49.4330   34.9170 C.3   225  ASN225      0.1181
    102  CG        63.9330   48.7450   35.7290 C.2   225  ASN225      0.2629
    103  OD1       63.3070   49.3590   36.5910 O.2   225  ASN225     -0.2716
    104  ND2       63.6900   47.4700   35.4420 N.am  225  ASN225     -0.0877
    105  N         62.3500   45.8920   31.6640 N.3   227  ALA227     -0.1231
    106  CA        62.1300   44.6480   32.4010 C.3   227  ALA227      0.1694
    107  C         63.2790   43.6540   32.2530 C.2   227  ALA227      0.2591
    108  O         64.0230   43.6890   31.2710 O.2   227  ALA227     -0.2718
    109  CB        60.8180   44.0060   31.9580 C.3   227  ALA227      0.0304
    110  N         63.4090   42.7630   33.2350 N.am  228  ALA228     -0.1980
    111  CA        64.4720   41.7600   33.2380 C.3   228  ALA228      0.1597
    112  C         64.5260   40.9570   31.9480 C.2   228  ALA228      0.2287
    113  O         63.4980   40.5250   31.4290 O.2   228  ALA228     -0.2864
    114  CB        64.2920   40.8200   34.4230 C.3   228  ALA228      0.0319
    115  N         69.5330   44.6370   37.5610 N.3   235  LEU235     -0.1245
    116  CA        68.6360   45.6340   38.1250 C.3   235  LEU235      0.1561
    117  C         69.0080   45.7900   39.5930 C.2   235  LEU235      0.2260
    118  O         69.3810   44.8170   40.2440 O.2   235  LEU235     -0.2867
    119  CB        67.1800   45.1640   38.0250 C.3   235  LEU235      0.0270
    120  CG        66.6130   44.7240   36.6720 C.3   235  LEU235      0.0019
    121  CD1       65.2160   44.1550   36.8740 C.3   235  LEU235      0.0001
    122  CD2       66.5750   45.9020   35.7080 C.3   235  LEU235      0.0001
    123  N         67.9840   48.4840   43.2190 N.3   237  HIS237     -0.1241
    124  CA        67.1440   49.5560   43.7430 C.3   237  HIS237      0.1621
    125  C         67.8190   50.9170   43.6300 C.2   237  HIS237      0.2264
    126  O         67.1710   51.9140   43.3020 O.2   237  HIS237     -0.2867
    127  CB        66.7710   49.2660   45.2030 C.3   237  HIS237      0.0745
    128  CG        65.7590   50.2130   45.7690 C.ar  237  HIS237      0.0817
    129  ND1       64.5700   50.5010   45.1330 N.ar  237  HIS237     -0.2268
    130  CD2       65.7430   50.9130   46.9280 C.ar  237  HIS237      0.1154
    131  CE1       63.8660   51.3350   45.8760 C.ar  237  HIS237      0.1986
    132  NE2       64.5540   51.6000   46.9710 N.ar  237  HIS237     -0.2212
    133  N         67.2170   52.1870   40.3460 N.3   240  VAL240     -0.1245
    134  CA        65.8300   52.6080   40.1650 C.3   240  VAL240      0.1561
    135  C         65.7010   54.0360   40.6840 C.2   240  VAL240      0.2260
    136  O         65.1620   54.9080   40.0050 O.2   240  VAL240     -0.2867
    137  CB        64.8390   51.6850   40.9350 C.3   240  VAL240      0.0252
    138  CG1       63.4300   52.3000   40.9340 C.3   240  VAL240      0.0019
    139  CG2       64.7950   50.3160   40.2770 C.3   240  VAL240      0.0019
@<TRIPOS>BOND
     1   108   107    2
     2   113   112    2
     3   105   106    1
     4   112   111    1
     5   109   106    1
     6   107   106    1
     7   107   110   am
     8    99   100    2
     9    99    98    1
    10   110   111    1
    11   111   114    1
    12    41    42    2
    13    41    40    1
    14    98    97    1
    15    98   101    1
    16    97    92   am
    17    40    39    1
    18    71    72    1
    19   101   102    1
    20    90    91    1
    21    92    93    2
    22    92    91    1
    23    37    36    2
    24   104   102   am
    25    76    75    1
    26    39    36   am
    27   122   120    1
    28    91    94    1
    29   102   103    2
    30    75    72    1
    31    75    77    1
    32    36    35    1
    33    72    73    1
    34    38    35    1
    35   120   121    1
    36   120   119    1
    37    65    64    2
    38    66    67    1
    39    66    63    1
    40    35    34    1
    41    64    63    1
    42    94    95    1
    43    94    96    1
    44    74    73    2
    45    73    78   am
    46    67    68    1
    47    69    68   ar
    48   115   116    1
    49    34    31   am
    50    63    62    1
    51   119   116    1
    52   116   117    1
    53    68    70   ar
    54    78    79    1
    55    62    52   am
    56    31    30    1
    57    31    32    2
    58    30    33    1
    59    30    29    1
    60   117   118    2
    61    79    80    1
    62    52    53    2
    63    52    51    1
    64   136   135    2
    65    54    55    1
    66    54    51    1
    67   134   133    1
    68   134   135    1
    69   134   137    1
    70   139   137    1
    71    57    55   ar
    72    57    59   ar
    73    55    56   ar
    74    51    50    1
    75    81    80    2
    76    80    82   am
    77   138   137    1
    78    59    60   ar
    79    56    58   ar
    80    60    58   ar
    81    60    61    1
    82     4     3    2
    83    82    83    1
    84    89    88    1
    85     3     2    1
    86    87    86    1
    87    87    88    1
    88   123   124    1
    89    83    86    1
    90    83    84    1
    91   126   125    2
    92   125   124    1
    93   124   127    1
    94     5     2    1
    95     5     6    1
    96     2     1    1
    97    84    85    2
    98    46    45    2
    99   129   128   ar
   100   129   131   ar
   101   127   128    1
   102    45    44    1
   103   128   130   ar
   104   131   132   ar
   105    44    43    1
   106    44    47    1
   107   130   132   ar
   108    43    49    1
   109    26    24   ar
   110    26    27   ar
   111    14    16   ar
   112    14    12   ar
   113    16    15   ar
   114    24    22   ar
   115    47    48    1
   116    28    27    1
   117    49    48    1
   118    27    25   ar
   119    12    11    1
   120    12    13   ar
   121    15    13   ar
   122    22    21    1
   123    22    23   ar
   124    11     8    1
   125    21    18    1
   126    25    23   ar
   127     8     9    1
   128     8     7    1
   129    17    18    1
   130    18    19    1
   131     9    10    2
   132    19    20    2
