@<TRIPOS>MOLECULE
tmp/1n3oA00.pdb
 102 99 0 0 0
SMALL
GASTEIGER

@<TRIPOS>ATOM
      1  N         10.2520   34.9370   29.5920 N.3    85  ALA85      -0.1231
      2  CA         8.8780   34.8610   29.0920 C.3    85  ALA85       0.1694
      3  C          8.8630   34.1380   27.7440 C.2    85  ALA85       0.2592
      4  O          9.8900   34.0700   27.0720 O.2    85  ALA85      -0.2718
      5  CB         8.3000   36.2670   28.9420 C.3    85  ALA85       0.0304
      6  N          7.7110   33.6190   27.3240 N.am   86  ASP86      -0.1974
      7  CA         6.4520   33.6930   28.0590 C.3    86  ASP86       0.1709
      8  C          6.0000   32.3440   28.6020 C.2    86  ASP86       0.2293
      9  O          5.1440   32.2820   29.4820 O.2    86  ASP86      -0.2864
     10  CB         5.3670   34.2650   27.1450 C.3    86  ASP86       0.1436
     11  CG         5.3100   35.7840   27.1920 C.2    86  ASP86       0.3671
     12  OD1        4.6690   36.3130   28.1240 O.co2  86  ASP86      -0.2456
     13  OD2        5.9180   36.4380   26.3170 O.co2  86  ASP86      -0.2456
     14  N          1.3160   35.8400   19.7010 N.3   104  GLY104     -0.1210
     15  CA         2.6130   35.8590   20.3560 C.3   104  GLY104      0.1956
     16  C          2.5470   36.2190   21.8320 C.2   104  GLY104      0.2612
     17  O          1.4670   36.3710   22.3980 O.2   104  GLY104     -0.2717
     18  N          3.7120   36.3570   22.4580 N.am  105  GLY105     -0.1942
     19  CA         3.7650   36.7120   23.8650 C.3   105  GLY105      0.2014
     20  C          2.9460   35.8170   24.7750 C.2   105  GLY105      0.2639
     21  O          3.0200   34.5910   24.6890 O.2   105  GLY105     -0.2714
     22  N          2.1570   36.4460   25.6400 N.am  106  GLY106     -0.1939
     23  CA         1.3280   35.7260   26.5880 C.3   106  GLY106      0.2014
     24  C          0.2540   34.8060   26.0390 C.2   106  GLY106      0.2638
     25  O         -0.3280   34.0300   26.8000 O.2   106  GLY106     -0.2714
     26  N         -0.0340   34.8870   24.7440 N.am  107  LEU107     -0.1977
     27  CA        -1.0420   34.0050   24.1660 C.3   107  LEU107      0.1596
     28  C         -0.4080   32.6670   23.7950 C.2   107  LEU107      0.2287
     29  O         -1.0760   31.7690   23.2890 O.2   107  LEU107     -0.2864
     30  CB        -1.7090   34.6480   22.9500 C.3   107  LEU107      0.0297
     31  CG        -2.6100   35.8400   23.2890 C.3   107  LEU107      0.0022
     32  CD1       -3.2380   36.3820   22.0150 C.3   107  LEU107      0.0001
     33  CD2       -3.6970   35.4080   24.2710 C.3   107  LEU107      0.0001
     34  N          5.4660   34.3170   32.8520 N.3   132  PHE132     -0.1241
     35  CA         5.2810   35.7690   32.8330 C.3   132  PHE132      0.1605
     36  C          3.8220   36.0740   33.1420 C.2   132  PHE132      0.2264
     37  O          2.9280   35.5720   32.4700 O.2   132  PHE132     -0.2867
     38  CB         5.6410   36.3220   31.4550 C.3   132  PHE132      0.0534
     39  CG         5.8300   37.8070   31.4300 C.ar  132  PHE132     -0.0203
     40  CD1        7.0140   38.3750   31.8950 C.ar  132  PHE132     -0.0042
     41  CD2        4.8210   38.6410   30.9660 C.ar  132  PHE132     -0.0042
     42  CE1        7.1920   39.7560   31.8970 C.ar  132  PHE132     -0.0003
     43  CE2        4.9850   40.0260   30.9640 C.ar  132  PHE132     -0.0003
     44  CZ         6.1740   40.5830   31.4300 C.ar  132  PHE132     -0.0000
     45  N         -0.6330   43.8360   33.4850 N.3   136  ASP136     -0.1225
     46  CA        -1.0280   44.8250   32.4880 C.3   136  ASP136      0.1805
     47  C         -1.1900   44.1940   31.1040 C.2   136  ASP136      0.2598
     48  O         -2.0740   44.5830   30.3390 O.2   136  ASP136     -0.2718
     49  CB        -0.0230   45.9860   32.4440 C.3   136  ASP136      0.1424
     50  CG         1.3610   45.5520   32.0180 C.2   136  ASP136      0.3668
     51  OD1        1.9190   44.6300   32.6450 O.co2 136  ASP136     -0.2456
     52  OD2        1.8960   46.1480   31.0550 O.co2 136  ASP136     -0.2456
     53  N         -0.3540   43.2090   30.7930 N.am  137  SER137     -0.1938
     54  CA        -0.4210   42.5260   29.5010 C.3   137  SER137      0.2055
     55  C         -1.1040   41.1570   29.5980 C.2   137  SER137      0.2643
     56  O         -1.8480   40.7640   28.7000 O.2   137  SER137     -0.2714
     57  CB         0.9850   42.3620   28.9260 C.3   137  SER137      0.2130
     58  OG         1.8130   41.6670   29.8380 O.3   137  SER137     -0.2179
     59  N         -0.8420   40.4400   30.6900 N.am  138  ASN138     -0.1971
     60  CA        -1.4250   39.1180   30.9380 C.3   138  ASN138      0.1688
     61  C         -2.4670   39.2560   32.0480 C.2   138  ASN138      0.2292
     62  O         -2.3310   38.6800   33.1300 O.2   138  ASN138     -0.2864
     63  CB        -0.3310   38.1390   31.3730 C.3   138  ASN138      0.1181
     64  CG         0.7000   37.8870   30.2830 C.2   138  ASN138      0.2629
     65  OD1        0.9450   36.6170   29.9850 O.2   138  ASN138     -0.2716
     66  ND2        1.2770   38.8250   29.7220 N.am  138  ASN138     -0.0877
     67  N         -5.2810   37.9590   32.4880 N.3   140  TRP140     -0.1241
     68  CA        -5.9770   36.7240   32.8530 C.3   140  TRP140      0.1605
     69  C         -5.1970   35.8320   33.8250 C.2   140  TRP140      0.2264
     70  O         -5.7620   34.8960   34.3930 O.2   140  TRP140     -0.2867
     71  CB        -6.2780   35.9310   31.5800 C.3   140  TRP140      0.0550
     72  CG        -5.0400   35.7340   30.7720 C.ar  140  TRP140      0.0003
     73  CD1       -4.0040   34.8820   31.0440 C.ar  140  TRP140      0.0946
     74  CD2       -4.6360   36.5050   29.6380 C.ar  140  TRP140      0.0152
     75  NE1       -2.9800   35.0820   30.1500 N.ar  140  TRP140     -0.2442
     76  CE2       -3.3410   36.0730   29.2760 C.ar  140  TRP140      0.0810
     77  CE3       -5.2430   37.5250   28.8920 C.ar  140  TRP140      0.0012
     78  CZ2       -2.6410   36.6240   28.1990 C.ar  140  TRP140      0.0191
     79  CZ3       -4.5500   38.0720   27.8240 C.ar  140  TRP140      0.0001
     80  CH2       -3.2590   37.6200   27.4870 C.ar  140  TRP140      0.0015
     81  N          7.5450   37.3630   24.0260 N.3   220  GLY220     -0.1210
     82  CA         7.1410   38.6720   23.5350 C.3   220  GLY220      0.1956
     83  C          8.2790   39.6380   23.8050 C.2   220  GLY220      0.2612
     84  O          9.3840   39.4330   23.3030 O.2   220  GLY220     -0.2717
     85  N          8.0230   40.6750   24.6020 N.am  221  GLU221     -0.1965
     86  CA         9.0520   41.6580   24.9540 C.3   221  GLU221      0.1733
     87  C         10.1600   40.9620   25.7410 C.2   221  GLU221      0.2616
     88  O         11.3480   41.1950   25.5050 O.2   221  GLU221     -0.2715
     89  CB         8.4550   42.7680   25.8190 C.3   221  GLU221      0.0429
     90  CG         7.3620   43.5870   25.1630 C.3   221  GLU221      0.1163
     91  CD         7.8900   44.5830   24.1540 C.2   221  GLU221      0.3649
     92  OE1        8.4820   44.1540   23.1410 O.co2 221  GLU221     -0.2457
     93  OE2        7.7130   45.8000   24.3800 O.co2 221  GLU221     -0.2457
     94  N          9.7650   40.1300   26.7020 N.am  222  GLN222     -0.1977
     95  CA        10.7250   39.3770   27.4990 C.3   222  GLN222      0.1601
     96  C         10.9310   38.0470   26.7870 C.2   222  GLN222      0.2287
     97  O         10.0520   37.5880   26.0540 O.2   222  GLN222     -0.2864
     98  CB        10.2010   39.1370   28.9150 C.3   222  GLN222      0.0394
     99  CG        10.2470   40.3460   29.8430 C.3   222  GLN222      0.0908
    100  CD         9.5860   41.5750   29.2570 C.2   222  GLN222      0.2608
    101  OE1       10.2200   42.3570   28.5500 O.2   222  GLN222     -0.2717
    102  NE2        8.2990   41.7420   29.5300 N.am  222  GLN222     -0.0878
@<TRIPOS>BOND
     1    14    15    1
     2    15    16    1
     3    16    17    2
     4    16    18   am
     5    32    31    1
     6    18    19    1
     7    30    31    1
     8    30    27    1
     9    92    91   ar
    10    31    33    1
    11    29    28    2
    12    84    83    2
    13    82    83    1
    14    82    81    1
    15    28    27    1
    16    83    85   am
    17    19    20    1
    18    91    93   ar
    19    91    90    1
    20    27    26    1
    21    85    86    1
    22    21    20    2
    23    26    24   am
    24    20    22   am
    25    86    87    1
    26    86    89    1
    27    90    89    1
    28    88    87    2
    29    22    23    1
    30    87    94   am
    31    24    23    1
    32    24    25    2
    33    97    96    2
    34    13    11   ar
    35    94    95    1
    36    96    95    1
    37     4     3    2
    38    10    11    1
    39    10     7    1
    40    11    12   ar
    41     6     3   am
    42     6     7    1
    43    80    79   ar
    44    80    78   ar
    45    95    98    1
    46     3     2    1
    47    79    77   ar
    48     7     8    1
    49    78    76   ar
    50   101   100    2
    51     8     9    2
    52    56    55    2
    53    77    74   ar
    54    98    99    1
    55    57    54    1
    56    57    58    1
    57     5     2    1
    58     2     1    1
    59   100   102   am
    60   100    99    1
    61    76    74   ar
    62    76    75   ar
    63    54    55    1
    64    54    53    1
    65    55    59   am
    66    74    72   ar
    67    66    64   am
    68    65    64    2
    69    75    73   ar
    70    64    63    1
    71    48    47    2
    72    59    60    1
    73    72    73   ar
    74    72    71    1
    75    53    47   am
    76    60    63    1
    77    60    61    1
    78    43    41   ar
    79    43    44   ar
    80    41    39   ar
    81    52    50   ar
    82    47    46    1
    83    39    38    1
    84    39    40   ar
    85    44    42   ar
    86    38    35    1
    87    71    68    1
    88    40    42   ar
    89    50    49    1
    90    50    51   ar
    91    61    62    2
    92    49    46    1
    93    37    36    2
    94    46    45    1
    95    67    68    1
    96    35    34    1
    97    35    36    1
    98    68    69    1
    99    69    70    2
