@<TRIPOS>MOLECULE
tmp/1n3pB00.pdb
 107 103 0 0 0
SMALL
GASTEIGER

@<TRIPOS>ATOM
      1  N         -5.7700  -15.7400   -7.5600 N.3    85  ALA85      -0.1231
      2  CA        -4.4740  -15.0870   -7.7120 C.3    85  ALA85       0.1694
      3  C         -4.6470  -13.6130   -7.3630 C.2    85  ALA85       0.2592
      4  O         -5.7780  -13.1300   -7.3230 O.2    85  ALA85      -0.2718
      5  CB        -3.9900  -15.2450   -9.1500 C.3    85  ALA85       0.0304
      6  N         -3.5540  -12.8820   -7.1380 N.am   86  ASP86      -0.1974
      7  CA        -2.1830  -13.3900   -7.2030 C.3    86  ASP86       0.1709
      8  C         -1.4760  -13.5210   -5.8630 C.2    86  ASP86       0.2293
      9  O         -0.5170  -14.2780   -5.7420 O.2    86  ASP86      -0.2864
     10  CB        -1.3520  -12.4890   -8.1120 C.3    86  ASP86       0.1436
     11  CG        -1.4750  -12.8670   -9.5610 C.2    86  ASP86       0.3671
     12  OD1       -0.7910  -13.8300   -9.9660 O.co2  86  ASP86      -0.2456
     13  OD2       -2.2680  -12.2280  -10.2840 O.co2  86  ASP86      -0.2456
     14  N          1.2050   -5.2310  -11.8780 N.3   104  GLY104     -0.1210
     15  CA         0.0450   -6.0270  -11.5120 C.3   104  GLY104      0.1956
     16  C          0.3060   -7.5220  -11.5230 C.2   104  GLY104      0.2612
     17  O          1.4310   -7.9710  -11.7540 O.2   104  GLY104     -0.2717
     18  N         -0.7390   -8.2980  -11.2580 N.am  105  GLY105     -0.1942
     19  CA        -0.6090   -9.7460  -11.2550 C.3   105  GLY105      0.2014
     20  C          0.5090  -10.3400  -10.4150 C.2   105  GLY105      0.2639
     21  O          0.6720  -10.0070   -9.2390 O.2   105  GLY105     -0.2714
     22  N          1.2840  -11.2260  -11.0340 N.am  106  GLY106     -0.1939
     23  CA         2.3720  -11.9030  -10.3480 C.3   106  GLY106      0.2014
     24  C          3.4420  -11.0340   -9.7130 C.2   106  GLY106      0.2638
     25  O          4.2250  -11.5270   -8.9010 O.2   106  GLY106     -0.2714
     26  N          3.4970   -9.7550  -10.0730 N.am  107  LEU107     -0.1977
     27  CA         4.5000   -8.8680   -9.4940 C.3   107  LEU107      0.1596
     28  C          4.0040   -8.2640   -8.1800 C.2   107  LEU107      0.2287
     29  O          4.7100   -7.4980   -7.5230 O.2   107  LEU107     -0.2864
     30  CB         4.8900   -7.7810  -10.4960 C.3   107  LEU107      0.0297
     31  CG         5.5650   -8.3260  -11.7630 C.3   107  LEU107      0.0022
     32  CD1        5.9390   -7.1700  -12.6890 C.3   107  LEU107      0.0001
     33  CD2        6.8070   -9.1230  -11.3810 C.3   107  LEU107      0.0001
     34  N         -0.4740  -18.1010   -6.7680 N.3   132  PHE132     -0.1241
     35  CA        -0.4440  -18.3990   -8.1980 C.3   132  PHE132      0.1605
     36  C          0.9890  -18.6510   -8.6400 C.2   132  PHE132      0.2264
     37  O          1.8290  -17.7550   -8.5770 O.2   132  PHE132     -0.2867
     38  CB        -1.0200  -17.2310   -8.9950 C.3   132  PHE132      0.0534
     39  CG        -1.2310  -17.5400  -10.4430 C.ar  132  PHE132     -0.0203
     40  CD1       -2.3220  -18.3050  -10.8490 C.ar  132  PHE132     -0.0042
     41  CD2       -0.3120  -17.1180  -11.3990 C.ar  132  PHE132     -0.0042
     42  CE1       -2.4950  -18.6480  -12.1880 C.ar  132  PHE132     -0.0003
     43  CE2       -0.4740  -17.4580  -12.7420 C.ar  132  PHE132     -0.0003
     44  CZ        -1.5690  -18.2250  -13.1380 C.ar  132  PHE132     -0.0000
     45  N          1.7730  -20.6850  -11.7820 N.3   134  ALA134     -0.1245
     46  CA         1.8320  -21.2500  -13.1320 C.3   134  ALA134      0.1562
     47  C          3.2480  -21.0990  -13.6980 C.2   134  ALA134      0.2260
     48  O          3.7220  -19.9860  -13.9280 O.2   134  ALA134     -0.2867
     49  CB         0.8240  -20.5490  -14.0330 C.3   134  ALA134      0.0290
     50  N          4.4350  -21.2850  -16.4830 N.3   136  ASP136     -0.1225
     51  CA         4.5610  -20.6450  -17.7850 C.3   136  ASP136      0.1805
     52  C          4.4600  -19.1320  -17.6430 C.2   136  ASP136      0.2598
     53  O          4.9280  -18.3910  -18.5010 O.2   136  ASP136     -0.2718
     54  CB         3.4730  -21.1460  -18.7400 C.3   136  ASP136      0.1424
     55  CG         2.0800  -21.0480  -18.1420 C.2   136  ASP136      0.3668
     56  OD1        1.8040  -21.7750  -17.1640 O.co2 136  ASP136     -0.2456
     57  OD2        1.2650  -20.2420  -18.6420 O.co2 136  ASP136     -0.2456
     58  N          3.8580  -18.6900  -16.5440 N.am  137  SER137     -0.1938
     59  CA         3.6560  -17.2690  -16.2640 C.3   137  SER137      0.2055
     60  C          4.6600  -16.7390  -15.2420 C.2   137  SER137      0.2643
     61  O          5.5460  -15.9510  -15.5700 O.2   137  SER137     -0.2714
     62  CB         2.2300  -17.0540  -15.7380 C.3   137  SER137      0.2130
     63  OG         1.9860  -15.6900  -15.4500 O.3   137  SER137     -0.2179
     64  N          4.4940  -17.1640  -13.9940 N.am  138  ASN138     -0.1971
     65  CA         5.3830  -16.7510  -12.9160 C.3   138  ASN138      0.1688
     66  C          6.5440  -17.7440  -12.8920 C.2   138  ASN138      0.2292
     67  O          6.6440  -18.5850  -11.9980 O.2   138  ASN138     -0.2864
     68  CB         4.6420  -16.7720  -11.5710 C.3   138  ASN138      0.1181
     69  CG         3.4490  -15.8160  -11.5290 C.2   138  ASN138      0.2629
     70  OD1        2.9620  -15.4820  -10.4540 O.2   138  ASN138     -0.2716
     71  ND2        2.9680  -15.3930  -12.6930 N.am  138  ASN138     -0.0877
     72  N          9.5260  -17.5150  -12.0430 N.3   140  TRP140     -0.1241
     73  CA        10.4120  -17.4170  -10.8900 C.3   140  TRP140      0.1605
     74  C          9.9220  -18.1810   -9.6560 C.2   140  TRP140      0.2264
     75  O         10.7000  -18.4250   -8.7340 O.2   140  TRP140     -0.2867
     76  CB        10.5990  -15.9380  -10.5520 C.3   140  TRP140      0.0550
     77  CG         9.2880  -15.2550  -10.3470 C.ar  140  TRP140      0.0003
     78  CD1        8.4990  -15.3110   -9.2340 C.ar  140  TRP140      0.0946
     79  CD2        8.5400  -14.5350  -11.3310 C.ar  140  TRP140      0.0152
     80  NE1        7.3040  -14.6760   -9.4650 N.ar  140  TRP140     -0.2442
     81  CE2        7.3000  -14.1910  -10.7450 C.ar  140  TRP140      0.0810
     82  CE3        8.7930  -14.1500  -12.6530 C.ar  140  TRP140      0.0012
     83  CZ2        6.3150  -13.4790  -11.4370 C.ar  140  TRP140      0.0191
     84  CZ3        7.8100  -13.4420  -13.3440 C.ar  140  TRP140      0.0001
     85  CH2        6.5860  -13.1150  -12.7320 C.ar  140  TRP140      0.0015
     86  N         -4.2490  -10.6460  -11.4970 N.3   220  GLY220     -0.1210
     87  CA        -4.0780  -10.4520  -12.9210 C.3   220  GLY220      0.1956
     88  C         -5.2850  -11.0590  -13.6060 C.2   220  GLY220      0.2612
     89  O         -6.4150  -10.6470  -13.3480 O.2   220  GLY220     -0.2717
     90  N         -5.0450  -12.0430  -14.4680 N.am  221  GLU221     -0.1965
     91  CA        -6.1190  -12.7220  -15.1880 C.3   221  GLU221      0.1733
     92  C         -6.9840  -13.4750  -14.1830 C.2   221  GLU221      0.2616
     93  O         -8.2040  -13.5120  -14.3050 O.2   221  GLU221     -0.2715
     94  CB        -5.5360  -13.7080  -16.2050 C.3   221  GLU221      0.0429
     95  CG        -4.6950  -13.0720  -17.3010 C.3   221  GLU221      0.1163
     96  CD        -5.5220  -12.2670  -18.2820 C.2   221  GLU221      0.3649
     97  OE1       -6.3730  -12.8670  -18.9720 O.co2 221  GLU221     -0.2457
     98  OE2       -5.3220  -11.0370  -18.3640 O.co2 221  GLU221     -0.2457
     99  N         -6.3360  -14.0900  -13.1990 N.am  222  GLN222     -0.1977
    100  CA        -7.0400  -14.8230  -12.1580 C.3   222  GLN222      0.1601
    101  C         -7.1850  -13.8570  -10.9890 C.2   222  GLN222      0.2287
    102  O         -6.3620  -12.9520  -10.8190 O.2   222  GLN222     -0.2864
    103  CB        -6.2410  -16.0570  -11.7390 C.3   222  GLN222      0.0394
    104  CG        -5.8840  -16.9670  -12.9010 C.3   222  GLN222      0.0908
    105  CD        -7.0900  -17.3250  -13.7470 C.2   222  GLN222      0.2608
    106  OE1       -8.0570  -17.9070  -13.2580 O.2   222  GLN222     -0.2717
    107  NE2       -7.0390  -16.9710  -15.0260 N.am  222  GLN222     -0.0878
@<TRIPOS>BOND
     1    97    96   ar
     2    54    55    1
     3    54    51    1
     4    57    55   ar
     5    53    52    2
     6    98    96   ar
     7    96    95    1
     8    55    56   ar
     9    51    52    1
    10    51    50    1
    11    52    58   am
    12    95    94    1
    13    58    59    1
    14    59    62    1
    15    59    60    1
    16    94    91    1
    17    62    63    1
    18    61    60    2
    19    60    64   am
    20    91    90    1
    21    91    92    1
    22   107   105   am
    23    90    88   am
    24    93    92    2
    25    92    99   am
    26    49    46    1
    27    64    65    1
    28    48    47    2
    29   105   106    2
    30   105   104    1
    31    47    46    1
    32    88    89    2
    33    88    87    1
    34    84    85   ar
    35    84    82   ar
    36    99   100    1
    37    44    43   ar
    38    44    42   ar
    39    46    45    1
    40    87    86    1
    41    65    66    1
    42    65    68    1
    43   104   103    1
    44    66    67    2
    45    43    41   ar
    46    85    83   ar
    47    71    69   am
    48    32    31    1
    49    82    79   ar
    50    42    40   ar
    51   100   103    1
    52   100   101    1
    53    72    73    1
    54    14    15    1
    55    31    33    1
    56    31    30    1
    57    17    16    2
    58    68    69    1
    59    69    70    2
    60    16    15    1
    61    16    18   am
    62    83    81   ar
    63    41    39   ar
    64    79    81   ar
    65    79    77   ar
    66    18    19    1
    67    19    20    1
    68    22    20   am
    69    22    23    1
    70   101   102    2
    71    73    76    1
    72    73    74    1
    73    40    39   ar
    74    81    80   ar
    75    76    77    1
    76    30    27    1
    77    39    38    1
    78    20    21    2
    79    23    24    1
    80    77    78   ar
    81    13    11   ar
    82    26    24   am
    83    26    27    1
    84    12    11   ar
    85    24    25    2
    86    74    75    2
    87    11    10    1
    88    27    28    1
    89    80    78   ar
    90     5     2    1
    91    38    35    1
    92    36    37    2
    93    36    35    1
    94    35    34    1
    95    28    29    2
    96    10     7    1
    97     2     1    1
    98     2     3    1
    99     3     4    2
   100     3     6   am
   101     7     6    1
   102     7     8    1
   103     8     9    2
