@<TRIPOS>MOLECULE
tmp/1n3qB00.pdb
 107 103 0 0 0
SMALL
GASTEIGER

@<TRIPOS>ATOM
      1  N         -5.9660  -15.5940   -7.6210 N.3    85  ALA85      -0.1231
      2  CA        -4.6700  -14.9430   -7.7530 C.3    85  ALA85       0.1694
      3  C         -4.8220  -13.4770   -7.3570 C.2    85  ALA85       0.2592
      4  O         -5.9420  -12.9650   -7.3180 O.2    85  ALA85      -0.2718
      5  CB        -4.1910  -15.0540   -9.1940 C.3    85  ALA85       0.0304
      6  N         -3.7150  -12.7790   -7.0970 N.am   86  ASP86      -0.1974
      7  CA        -2.3630  -13.3190   -7.1690 C.3    86  ASP86       0.1709
      8  C         -1.6520  -13.4500   -5.8340 C.2    86  ASP86       0.2293
      9  O         -0.6310  -14.1330   -5.7390 O.2    86  ASP86      -0.2864
     10  CB        -1.5260  -12.4460   -8.0950 C.3    86  ASP86       0.1436
     11  CG        -1.7210  -12.8000   -9.5470 C.2    86  ASP86       0.3671
     12  OD1       -1.1110  -13.7940   -9.9860 O.co2  86  ASP86      -0.2456
     13  OD2       -2.4950  -12.1060  -10.2380 O.co2  86  ASP86      -0.2456
     14  N          1.0030   -5.1570  -11.9750 N.3   104  GLY104     -0.1210
     15  CA        -0.1360   -5.9950  -11.6540 C.3   104  GLY104      0.1956
     16  C          0.1400   -7.4860  -11.5950 C.2   104  GLY104      0.2612
     17  O          1.2860   -7.9370  -11.7230 O.2   104  GLY104     -0.2717
     18  N         -0.9270   -8.2520  -11.3860 N.am  105  GLY105     -0.1942
     19  CA        -0.8270   -9.7010  -11.3250 C.3   105  GLY105      0.2014
     20  C          0.2990  -10.2770  -10.4870 C.2   105  GLY105      0.2639
     21  O          0.4750   -9.9120   -9.3230 O.2   105  GLY105     -0.2714
     22  N          1.0610  -11.1850  -11.0930 N.am  106  GLY106     -0.1939
     23  CA         2.1660  -11.8360  -10.4110 C.3   106  GLY106      0.2014
     24  C          3.2230  -10.9310   -9.8020 C.2   106  GLY106      0.2638
     25  O          4.0190  -11.3840   -8.9770 O.2   106  GLY106     -0.2714
     26  N          3.2540   -9.6620  -10.1940 N.am  107  LEU107     -0.1977
     27  CA         4.2460   -8.7540   -9.6300 C.3   107  LEU107      0.1596
     28  C          3.7600   -8.1610   -8.3120 C.2   107  LEU107      0.2287
     29  O          4.4600   -7.3740   -7.6730 O.2   107  LEU107     -0.2864
     30  CB         4.6100   -7.6530  -10.6340 C.3   107  LEU107      0.0297
     31  CG         5.2680   -8.1810  -11.9200 C.3   107  LEU107      0.0022
     32  CD1        5.7270   -7.0160  -12.7730 C.3   107  LEU107      0.0001
     33  CD2        6.4570   -9.0730  -11.5710 C.3   107  LEU107      0.0001
     34  N         -0.7670  -17.9570   -6.8060 N.3   132  PHE132     -0.1241
     35  CA        -0.7630  -18.2860   -8.2340 C.3   132  PHE132      0.1605
     36  C          0.6790  -18.5490   -8.6580 C.2   132  PHE132      0.2264
     37  O          1.5310  -17.6710   -8.5470 O.2   132  PHE132     -0.2867
     38  CB        -1.3350  -17.1240   -9.0500 C.3   132  PHE132      0.0534
     39  CG        -1.6310  -17.4770  -10.4820 C.ar  132  PHE132     -0.0203
     40  CD1       -2.7550  -18.2310  -10.8070 C.ar  132  PHE132     -0.0042
     41  CD2       -0.7730  -17.0800  -11.5030 C.ar  132  PHE132     -0.0042
     42  CE1       -3.0200  -18.5840  -12.1280 C.ar  132  PHE132     -0.0003
     43  CE2       -1.0300  -17.4310  -12.8300 C.ar  132  PHE132     -0.0003
     44  CZ        -2.1560  -18.1830  -13.1400 C.ar  132  PHE132     -0.0000
     45  N          1.4240  -20.6120  -11.8200 N.3   134  ALA134     -0.1245
     46  CA         1.4800  -21.1580  -13.1740 C.3   134  ALA134      0.1562
     47  C          2.8810  -20.9650  -13.7490 C.2   134  ALA134      0.2260
     48  O          3.3300  -19.8410  -13.9570 O.2   134  ALA134     -0.2867
     49  CB         0.4450  -20.4730  -14.0560 C.3   134  ALA134      0.0290
     50  N          4.0720  -20.9930  -16.5470 N.3   136  ASP136     -0.1225
     51  CA         4.2150  -20.3260  -17.8370 C.3   136  ASP136      0.1805
     52  C          4.2150  -18.8020  -17.7140 C.2   136  ASP136      0.2598
     53  O          4.7660  -18.1100  -18.5680 O.2   136  ASP136     -0.2718
     54  CB         3.1110  -20.7790  -18.8010 C.3   136  ASP136      0.1424
     55  CG         1.7240  -20.6190  -18.2160 C.2   136  ASP136      0.3668
     56  OD1        1.4420  -21.2570  -17.1790 O.co2 136  ASP136     -0.2456
     57  OD2        0.9170  -19.8580  -18.7900 O.co2 136  ASP136     -0.2456
     58  N          3.5990  -18.2750  -16.6580 N.am  137  SER137     -0.1938
     59  CA         3.5700  -16.8290  -16.4540 C.3   137  SER137      0.2055
     60  C          4.4600  -16.4280  -15.2810 C.2   137  SER137      0.2643
     61  O          5.3320  -15.5750  -15.4270 O.2   137  SER137     -0.2714
     62  CB         2.1370  -16.3320  -16.2260 C.3   137  SER137      0.2130
     63  OG         1.5470  -16.9250  -15.0850 O.3   137  SER137     -0.2179
     64  N          4.2460  -17.0370  -14.1180 N.am  138  ASN138     -0.1971
     65  CA         5.0760  -16.7270  -12.9580 C.3   138  ASN138      0.1688
     66  C          6.2550  -17.6980  -12.9570 C.2   138  ASN138      0.2292
     67  O          6.3960  -18.5330  -12.0600 O.2   138  ASN138     -0.2864
     68  CB         4.2770  -16.8660  -11.6570 C.3   138  ASN138      0.1181
     69  CG         3.1040  -15.9000  -11.5750 C.2   138  ASN138      0.2629
     70  OD1        2.6650  -15.5480  -10.4820 O.2   138  ASN138     -0.2716
     71  ND2        2.5750  -15.4890  -12.7260 N.am  138  ASN138     -0.0877
     72  N          9.1580  -17.4360  -12.1500 N.3   140  TRP140     -0.1241
     73  CA        10.0220  -17.3110  -10.9820 C.3   140  TRP140      0.1605
     74  C          9.5460  -18.0570   -9.7320 C.2   140  TRP140      0.2264
     75  O         10.3140  -18.2380   -8.7900 O.2   140  TRP140     -0.2867
     76  CB        10.1930  -15.8270  -10.6660 C.3   140  TRP140      0.0550
     77  CG         8.8810  -15.1440  -10.4560 C.ar  140  TRP140      0.0003
     78  CD1        8.0930  -15.2060   -9.3440 C.ar  140  TRP140      0.0946
     79  CD2        8.1440  -14.3930  -11.4260 C.ar  140  TRP140      0.0152
     80  NE1        6.9080  -14.5450   -9.5620 N.ar  140  TRP140     -0.2442
     81  CE2        6.9120  -14.0370  -10.8330 C.ar  140  TRP140      0.0810
     82  CE3        8.4030  -13.9910  -12.7410 C.ar  140  TRP140      0.0012
     83  CZ2        5.9400  -13.2960  -11.5100 C.ar  140  TRP140      0.0191
     84  CZ3        7.4350  -13.2540  -13.4170 C.ar  140  TRP140      0.0001
     85  CH2        6.2180  -12.9150  -12.7980 C.ar  140  TRP140      0.0015
     86  N         -4.5300  -10.4900  -11.5700 N.3   220  GLY220     -0.1210
     87  CA        -4.3770  -10.2870  -12.9990 C.3   220  GLY220      0.1956
     88  C         -5.5980  -10.8690  -13.6860 C.2   220  GLY220      0.2612
     89  O         -6.7110  -10.3880  -13.4730 O.2   220  GLY220     -0.2717
     90  N         -5.4080  -11.9030  -14.5010 N.am  221  GLU221     -0.1965
     91  CA        -6.5330  -12.5380  -15.1860 C.3   221  GLU221      0.1733
     92  C         -7.3460  -13.3600  -14.1880 C.2   221  GLU221      0.2616
     93  O         -8.5580  -13.4790  -14.3150 O.2   221  GLU221     -0.2715
     94  CB        -6.0440  -13.4330  -16.3300 C.3   221  GLU221      0.0429
     95  CG        -5.4240  -12.6760  -17.4940 C.3   221  GLU221      0.1163
     96  CD        -6.3900  -11.6800  -18.1180 C.2   221  GLU221      0.3649
     97  OE1       -7.4770  -12.1040  -18.5690 O.co2 221  GLU221     -0.2457
     98  OE2       -6.0630  -10.4740  -18.1580 O.co2 221  GLU221     -0.2457
     99  N         -6.6650  -13.9450  -13.2100 N.am  222  GLN222     -0.1977
    100  CA        -7.3360  -14.7090  -12.1610 C.3   222  GLN222      0.1601
    101  C         -7.4850  -13.7420  -10.9910 C.2   222  GLN222      0.2287
    102  O         -6.7000  -12.8000  -10.8520 O.2   222  GLN222     -0.2864
    103  CB        -6.5050  -15.9290  -11.7580 C.3   222  GLN222      0.0394
    104  CG        -6.8040  -17.1980  -12.5560 C.3   222  GLN222      0.0908
    105  CD        -6.8540  -16.9730  -14.0500 C.2   222  GLN222      0.2608
    106  OE1       -7.7940  -16.3720  -14.5710 O.2   222  GLN222     -0.2717
    107  NE2       -5.8350  -17.4470  -14.7510 N.am  222  GLN222     -0.0878
@<TRIPOS>BOND
     1    54    55    1
     2    54    51    1
     3    57    55   ar
     4    97    96   ar
     5    53    52    2
     6    55    56   ar
     7    98    96   ar
     8    96    95    1
     9    51    52    1
    10    51    50    1
    11    52    58   am
    12    95    94    1
    13    58    59    1
    14    59    62    1
    15    59    60    1
    16    94    91    1
    17    62    63    1
    18    61    60    2
    19    60    64   am
    20    91    90    1
    21    91    92    1
    22   107   105   am
    23   106   105    2
    24    90    88   am
    25    93    92    2
    26    92    99   am
    27    64    65    1
    28    49    46    1
    29   105   104    1
    30    48    47    2
    31    47    46    1
    32    88    89    2
    33    88    87    1
    34    84    85   ar
    35    84    82   ar
    36    99   100    1
    37    46    45    1
    38    44    43   ar
    39    44    42   ar
    40    87    86    1
    41    65    66    1
    42    65    68    1
    43    66    67    2
    44    43    41   ar
    45    85    83   ar
    46    32    31    1
    47    82    79   ar
    48    71    69   am
    49   104   103    1
    50   100   103    1
    51   100   101    1
    52    72    73    1
    53    42    40   ar
    54    14    15    1
    55    31    33    1
    56    31    30    1
    57    17    16    2
    58    68    69    1
    59    15    16    1
    60    16    18   am
    61    69    70    2
    62    83    81   ar
    63    41    39   ar
    64    79    81   ar
    65    79    77   ar
    66    18    19    1
    67    19    20    1
    68    22    20   am
    69    22    23    1
    70   101   102    2
    71    73    76    1
    72    73    74    1
    73    81    80   ar
    74    40    39   ar
    75    76    77    1
    76    30    27    1
    77    20    21    2
    78    39    38    1
    79    77    78   ar
    80    23    24    1
    81    13    11   ar
    82    26    24   am
    83    26    27    1
    84    12    11   ar
    85    24    25    2
    86    74    75    2
    87    27    28    1
    88    80    78   ar
    89    11    10    1
    90     5     2    1
    91    38    35    1
    92    36    37    2
    93    36    35    1
    94    28    29    2
    95    35    34    1
    96    10     7    1
    97     2     1    1
    98     2     3    1
    99     3     4    2
   100     3     6   am
   101     7     6    1
   102     7     8    1
   103     8     9    2
