@<TRIPOS>MOLECULE
tmp/1n3qA00.pdb
 107 103 0 0 0
SMALL
GASTEIGER

@<TRIPOS>ATOM
      1  N         10.2540   34.8440   29.7550 N.3    85  ALA85      -0.1231
      2  CA         8.8700   34.7480   29.2920 C.3    85  ALA85       0.1694
      3  C          8.8720   34.0360   27.9400 C.2    85  ALA85       0.2592
      4  O          9.9200   33.9430   27.3040 O.2    85  ALA85      -0.2718
      5  CB         8.2660   36.1440   29.1600 C.3    85  ALA85       0.0304
      6  N          7.7250   33.5270   27.4960 N.am   86  ASP86      -0.1974
      7  CA         6.4640   33.6040   28.2180 C.3    86  ASP86       0.1709
      8  C          6.0160   32.2620   28.7550 C.2    86  ASP86       0.2293
      9  O          5.1550   32.1980   29.6360 O.2    86  ASP86      -0.2864
     10  CB         5.3770   34.1710   27.3110 C.3    86  ASP86       0.1436
     11  CG         5.3510   35.6750   27.3220 C.2    86  ASP86       0.3671
     12  OD1        4.7970   36.2410   28.2910 O.co2  86  ASP86      -0.2456
     13  OD2        5.9000   36.2890   26.3820 O.co2  86  ASP86      -0.2456
     14  N          1.4970   35.7300   19.8790 N.3   104  GLY104     -0.1210
     15  CA         2.7730   35.7330   20.5640 C.3   104  GLY104      0.1956
     16  C          2.6570   36.1460   22.0200 C.2   104  GLY104      0.2612
     17  O          1.5570   36.3500   22.5360 O.2   104  GLY104     -0.2717
     18  N          3.7970   36.2760   22.6870 N.am  105  GLY105     -0.1942
     19  CA         3.7940   36.6710   24.0830 C.3   105  GLY105      0.2014
     20  C          2.9810   35.7680   24.9940 C.2   105  GLY105      0.2639
     21  O          3.0610   34.5420   24.9140 O.2   105  GLY105     -0.2714
     22  N          2.1870   36.3910   25.8580 N.am  106  GLY106     -0.1939
     23  CA         1.3720   35.6570   26.8080 C.3   106  GLY106      0.2014
     24  C          0.2930   34.7560   26.2410 C.2   106  GLY106      0.2638
     25  O         -0.3110   33.9840   26.9850 O.2   106  GLY106     -0.2714
     26  N          0.0250   34.8500   24.9440 N.am  107  LEU107     -0.1977
     27  CA        -0.9890   33.9870   24.3540 C.3   107  LEU107      0.1596
     28  C         -0.3660   32.6510   23.9760 C.2   107  LEU107      0.2287
     29  O         -1.0380   31.7630   23.4560 O.2   107  LEU107     -0.2864
     30  CB        -1.6410   34.6510   23.1370 C.3   107  LEU107      0.0297
     31  CG        -2.4800   35.8850   23.4720 C.3   107  LEU107      0.0022
     32  CD1       -3.1060   36.4320   22.2080 C.3   107  LEU107      0.0001
     33  CD2       -3.5610   35.5170   24.4810 C.3   107  LEU107      0.0001
     34  N          5.4370   34.1990   33.0370 N.3   132  PHE132     -0.1241
     35  CA         5.2450   35.6510   33.0150 C.3   132  PHE132      0.1605
     36  C          3.7940   35.9850   33.3560 C.2   132  PHE132      0.2264
     37  O          2.8670   35.4310   32.7640 O.2   132  PHE132     -0.2867
     38  CB         5.5910   36.2090   31.6350 C.3   132  PHE132      0.0534
     39  CG         5.7690   37.6900   31.6190 C.ar  132  PHE132     -0.0203
     40  CD1        6.9520   38.2600   32.0750 C.ar  132  PHE132     -0.0042
     41  CD2        4.7420   38.5200   31.1970 C.ar  132  PHE132     -0.0042
     42  CE1        7.1140   39.6400   32.1120 C.ar  132  PHE132     -0.0003
     43  CE2        4.8910   39.9080   31.2310 C.ar  132  PHE132     -0.0003
     44  CZ         6.0840   40.4650   31.6920 C.ar  132  PHE132     -0.0000
     45  N          2.7310   39.6330   34.3740 N.3   134  ALA134     -0.1245
     46  CA         2.4780   41.0600   34.5430 C.3   134  ALA134      0.1562
     47  C          0.9840   41.2950   34.3100 C.2   134  ALA134      0.2260
     48  O          0.4510   40.9570   33.2550 O.2   134  ALA134     -0.2867
     49  CB         3.3050   41.8610   33.5500 C.3   134  ALA134      0.0290
     50  N         -0.6430   43.8030   33.5470 N.3   136  ASP136     -0.1225
     51  CA        -1.0320   44.7650   32.5340 C.3   136  ASP136      0.1805
     52  C         -1.2440   44.0760   31.1840 C.2   136  ASP136      0.2598
     53  O         -2.2080   44.3790   30.4810 O.2   136  ASP136     -0.2718
     54  CB         0.0110   45.8850   32.4230 C.3   136  ASP136      0.1424
     55  CG         1.3760   45.3790   32.0180 C.2   136  ASP136      0.3668
     56  OD1        1.9490   44.5400   32.7430 O.co2 136  ASP136     -0.2456
     57  OD2        1.8810   45.8320   30.9700 O.co2 136  ASP136     -0.2456
     58  N         -0.3630   43.1420   30.8310 N.am  137  SER137     -0.1938
     59  CA        -0.4820   42.4180   29.5650 C.3   137  SER137      0.2055
     60  C         -1.0870   41.0130   29.7060 C.2   137  SER137      0.2643
     61  O         -1.7000   40.5110   28.7650 O.2   137  SER137     -0.2714
     62  CB         0.8810   42.3220   28.8780 C.3   137  SER137      0.2130
     63  OG         1.8220   41.6860   29.7180 O.3   137  SER137     -0.2179
     64  N         -0.9060   40.3720   30.8610 N.am  138  ASN138     -0.1971
     65  CA        -1.4750   39.0390   31.0900 C.3   138  ASN138      0.1688
     66  C         -2.5220   39.1360   32.1960 C.2   138  ASN138      0.2292
     67  O         -2.4390   38.4500   33.2130 O.2   138  ASN138     -0.2864
     68  CB        -0.3920   38.0200   31.4940 C.3   138  ASN138      0.1181
     69  CG         0.6470   37.7900   30.4010 C.2   138  ASN138      0.2629
     70  OD1        1.1160   36.6650   30.1980 O.2   138  ASN138     -0.2716
     71  ND2        1.0310   38.8600   29.7100 N.am  138  ASN138     -0.0877
     72  N         -5.2040   37.9080   32.6960 N.3   140  TRP140     -0.1241
     73  CA        -5.9000   36.6710   33.0390 C.3   140  TRP140      0.1605
     74  C         -5.1200   35.7650   33.9820 C.2   140  TRP140      0.2264
     75  O         -5.6750   34.8080   34.5170 O.2   140  TRP140     -0.2867
     76  CB        -6.2170   35.9130   31.7500 C.3   140  TRP140      0.0550
     77  CG        -4.9850   35.7300   30.9110 C.ar  140  TRP140      0.0003
     78  CD1       -3.9480   34.8790   31.1530 C.ar  140  TRP140      0.0946
     79  CD2       -4.6020   36.5140   29.7750 C.ar  140  TRP140      0.0152
     80  NE1       -2.9420   35.0850   30.2450 N.ar  140  TRP140     -0.2442
     81  CE2       -3.3160   36.0840   29.3860 C.ar  140  TRP140      0.0810
     82  CE3       -5.2210   37.5410   29.0490 C.ar  140  TRP140      0.0012
     83  CZ2       -2.6320   36.6450   28.3000 C.ar  140  TRP140      0.0191
     84  CZ3       -4.5410   38.1000   27.9700 C.ar  140  TRP140      0.0001
     85  CH2       -3.2590   37.6500   27.6070 C.ar  140  TRP140      0.0015
     86  N          7.4910   37.3480   24.2690 N.3   220  GLY220     -0.1210
     87  CA         7.0940   38.6720   23.8260 C.3   220  GLY220      0.1956
     88  C          8.2990   39.5800   23.9700 C.2   220  GLY220      0.2612
     89  O          9.3340   39.3290   23.3470 O.2   220  GLY220     -0.2717
     90  N          8.1840   40.6260   24.7860 N.am  221  GLU221     -0.1965
     91  CA         9.3120   41.5230   24.9930 C.3   221  GLU221      0.1733
     92  C         10.3190   40.9050   25.9440 C.2   221  GLU221      0.2616
     93  O         11.5010   41.2430   25.9000 O.2   221  GLU221     -0.2715
     94  CB         8.8540   42.8850   25.5040 C.3   221  GLU221      0.0429
     95  CG         8.1820   43.7230   24.4290 C.3   221  GLU221      0.1163
     96  CD         7.9810   45.1590   24.8560 C.2   221  GLU221      0.3649
     97  OE1        8.9900   45.8310   25.1750 O.co2 221  GLU221     -0.2457
     98  OE2        6.8170   45.6130   24.8710 O.co2 221  GLU221     -0.2457
     99  N          9.8490   40.0150   26.8150 N.am  222  GLN222     -0.1977
    100  CA        10.7460   39.2980   27.7170 C.3   222  GLN222      0.1601
    101  C         10.9350   37.9350   27.0730 C.2   222  GLN222      0.2287
    102  O         10.0240   37.4230   26.4180 O.2   222  GLN222     -0.2864
    103  CB        10.1720   39.1770   29.1300 C.3   222  GLN222      0.0394
    104  CG        10.6180   40.3290   30.0130 C.3   222  GLN222      0.0908
    105  CD        10.1270   41.6530   29.4960 C.2   222  GLN222      0.2608
    106  OE1       10.7260   42.6950   29.7430 O.2   222  GLN222     -0.2717
    107  NE2        9.0120   41.6210   28.7870 N.am  222  GLN222     -0.0878
@<TRIPOS>BOND
     1    14    15    1
     2    15    16    1
     3    16    17    2
     4    16    18   am
     5    32    31    1
     6    18    19    1
     7    30    31    1
     8    30    27    1
     9    89    88    2
    10    29    28    2
    11    31    33    1
    12    87    88    1
    13    87    86    1
    14    88    90   am
    15    28    27    1
    16    19    20    1
    17    27    26    1
    18    95    96    1
    19    95    94    1
    20    90    91    1
    21    96    98   ar
    22    96    97   ar
    23    21    20    2
    24    26    24   am
    25    91    94    1
    26    91    92    1
    27    20    22   am
    28    22    23    1
    29    93    92    2
    30    92    99   am
    31    24    23    1
    32    24    25    2
    33    13    11   ar
    34   102   101    2
    35    99   100    1
    36   101   100    1
    37     4     3    2
    38    10    11    1
    39    10     7    1
    40    11    12   ar
    41     6     3   am
    42     6     7    1
    43    85    84   ar
    44    85    83   ar
    45   100   103    1
    46     3     2    1
    47    84    82   ar
    48     7     8    1
    49    83    81   ar
    50     8     9    2
    51    61    60    2
    52   107   105   am
    53    62    59    1
    54    62    63    1
    55    82    79   ar
    56   103   104    1
    57     5     2    1
    58     2     1    1
    59    81    79   ar
    60    81    80   ar
    61   105   106    2
    62   105   104    1
    63    59    60    1
    64    59    58    1
    65    60    64   am
    66    71    69   am
    67    79    77   ar
    68    70    69    2
    69    80    78   ar
    70    69    68    1
    71    53    52    2
    72    58    52   am
    73    64    65    1
    74    77    78   ar
    75    77    76    1
    76    57    55   ar
    77    65    68    1
    78    65    66    1
    79    52    51    1
    80    41    43   ar
    81    41    39   ar
    82    43    44   ar
    83    39    38    1
    84    39    40   ar
    85    38    35    1
    86    44    42   ar
    87    76    73    1
    88    55    54    1
    89    55    56   ar
    90    40    42   ar
    91    66    67    2
    92    54    51    1
    93    51    50    1
    94    72    73    1
    95    37    36    2
    96    35    34    1
    97    35    36    1
    98    73    74    1
    99    48    47    2
   100    49    46    1
   101    74    75    2
   102    47    46    1
   103    45    46    1
