@<TRIPOS>MOLECULE
tmp/1n3zA01.pdb
 81 74 0 0 0
SMALL
GASTEIGER

@<TRIPOS>ATOM
      1  N         20.3730   -0.0190   26.4880 N.3     4  ALA4       -0.1245
      2  CA        20.9560    0.6420   25.3340 C.3     4  ALA4        0.1562
      3  C         22.2650   -0.0420   24.9460 C.2     4  ALA4        0.2260
      4  O         22.5440   -0.2250   23.7420 O.2     4  ALA4       -0.2867
      5  CB        21.2160    2.0960   25.6330 C.3     4  ALA4        0.0290
      6  N         21.5760   -3.3570   23.1470 N.3     7  LYS7       -0.1245
      7  CA        21.0190   -3.1040   21.8410 C.3     7  LYS7        0.1561
      8  C         22.1690   -2.7400   20.9120 C.2     7  LYS7        0.2260
      9  O         22.1720   -3.1670   19.7450 O.2     7  LYS7       -0.2867
     10  CB        20.0050   -1.9660   21.9020 C.3     7  LYS7        0.0271
     11  CG        19.3280   -1.6340   20.5630 C.3     7  LYS7        0.0035
     12  CD        18.4560   -0.4130   20.7610 C.3     7  LYS7        0.0206
     13  CE        17.7870    0.0410   19.4790 C.3     7  LYS7        0.1093
     14  NZ        16.2620   -0.0390   19.4990 N.3     7  LYS7       -0.1314
     15  N         27.8670   14.7060   18.5090 N.3    58  CYS58      -0.1235
     16  CA        26.9330   13.7010   17.9710 C.3    58  CYS58       0.1677
     17  C         26.0870   14.3500   16.8780 C.2    58  CYS58       0.2270
     18  O         25.8880   15.5740   16.8850 O.2    58  CYS58      -0.2867
     19  CB        25.9670   13.1880   19.0470 C.3    58  CYS58       0.0956
     20  SG        26.7960   12.4410   20.4960 S.3    58  CYS58      -0.0801
     21  N         22.9890   14.3420   16.5700 N.3    60  ASN60      -0.1240
     22  CA        21.8390   14.9970   17.1520 C.3    60  ASN60       0.1653
     23  C         22.1790   16.2140   18.0240 C.2    60  ASN60       0.2266
     24  O         21.2610   16.8720   18.5470 O.2    60  ASN60      -0.2867
     25  CB        21.0020   13.9830   17.9450 C.3    60  ASN60       0.1155
     26  CG        21.6490   13.5570   19.2650 C.2    60  ASN60       0.2627
     27  OD1       22.7780   13.9340   19.5950 O.2    60  ASN60      -0.2716
     28  ND2       20.9100   12.7560   20.0350 N.am   60  ASN60      -0.0877
     29  N         24.2930   16.1980   20.8270 N.3    62  GLN62      -0.1245
     30  CA        24.8460   15.8200   22.1260 C.3    62  GLN62       0.1566
     31  C         26.3650   15.7740   22.0310 C.2    62  GLN62       0.2260
     32  O         26.9390   15.6910   20.9370 O.2    62  GLN62      -0.2867
     33  CB        24.3130   14.4550   22.5460 C.3    62  GLN62       0.0367
     34  CG        22.8900   14.5070   23.0510 C.3    62  GLN62       0.0905
     35  CD        22.6310   15.7150   23.9520 C.2    62  GLN62       0.2608
     36  OE1       23.1270   15.7850   25.1000 O.2    62  GLN62      -0.2717
     37  NE2       21.8480   16.6740   23.4450 N.am   62  GLN62      -0.0878
     38  N         28.2380   13.5210   23.9650 N.3    64  ASN64      -0.1225
     39  CA        28.7520   12.2660   24.4920 C.3    64  ASN64       0.1785
     40  C         29.2020   11.2950   23.3860 C.2    64  ASN64       0.2597
     41  O         29.1060   10.0780   23.5590 O.2    64  ASN64      -0.2718
     42  CB        27.7230   11.6020   25.4130 C.3    64  ASN64       0.1169
     43  CG        26.4850   11.1550   24.6980 C.2    64  ASN64       0.2627
     44  OD1       25.8930   11.9090   23.9320 O.2    64  ASN64      -0.2716
     45  ND2       26.0650    9.9100   24.9580 N.am   64  ASN64      -0.0877
     46  N         29.7090   11.8310   22.2690 N.am   65  CYS65      -0.1970
     47  CA        30.1860   10.9910   21.1750 C.3    65  CYS65       0.1712
     48  C         31.6900   10.9830   21.0810 C.2    65  CYS65       0.2296
     49  O         32.3710   11.9510   21.4270 O.2    65  CYS65      -0.2864
     50  CB        29.5820   11.4060   19.8220 C.3    65  CYS65       0.0983
     51  SG        27.8430   10.8760   19.7110 S.3    65  CYS65      -0.0798
     52  N         28.0800    6.9670   20.4080 N.3   102  ALA102     -0.1245
     53  CA        27.6830    7.7150   21.5980 C.3   102  ALA102      0.1562
     54  C         27.9630    6.7350   22.7590 C.2   102  ALA102      0.2260
     55  O         27.8160    5.5180   22.6080 O.2   102  ALA102     -0.2867
     56  CB        26.2000    8.0920   21.5580 C.3   102  ALA102      0.0290
     57  N         26.4910    3.1980   23.3350 N.3   111  VAL111     -0.1231
     58  CA        25.0320    3.0640   23.3700 C.3   111  VAL111      0.1692
     59  C         24.3280    3.4890   22.0470 C.2   111  VAL111      0.2592
     60  O         23.0980    3.5110   21.9520 O.2   111  VAL111     -0.2718
     61  CB        24.4300    3.8460   24.5610 C.3   111  VAL111      0.0266
     62  CG1       25.0070    3.2760   25.8830 C.3   111  VAL111      0.0020
     63  CG2       24.7220    5.3540   24.4370 C.3   111  VAL111      0.0020
     64  N         25.1070    3.8180   21.0250 N.am  112  HIS112     -0.1976
     65  CA        24.5170    4.2140   19.7590 C.3   112  HIS112      0.1656
     66  C         25.6050    4.3330   18.7110 C.2   112  HIS112      0.2291
     67  O         26.6710    4.8540   18.9890 O.2   112  HIS112     -0.2864
     68  CB        23.8000    5.5610   19.9210 C.3   112  HIS112      0.0771
     69  CG        23.3520    6.1740   18.6220 C.ar  112  HIS112      0.0820
     70  ND1       22.2290    5.7770   17.9260 N.ar  112  HIS112     -0.2267
     71  CD2       23.8780    7.2020   17.9100 C.ar  112  HIS112      0.1154
     72  CE1       22.1060    6.5610   16.8300 C.ar  112  HIS112      0.1986
     73  NE2       23.0820    7.4460   16.7710 N.ar  112  HIS112     -0.2212
     74  N         26.8180    6.2510   15.7820 N.3   114  ASP114     -0.1239
     75  CA        26.4750    7.5310   15.1820 C.3   114  ASP114      0.1674
     76  C         26.8500    7.7120   13.7270 C.2   114  ASP114      0.2266
     77  O         26.0680    8.2610   12.9610 O.2   114  ASP114     -0.2867
     78  CB        27.0890    8.6770   15.9930 C.3   114  ASP114      0.1410
     79  CG        26.2570    9.9680   15.9150 C.2   114  ASP114      0.3668
     80  OD1       25.0330    9.8940   16.0210 O.co2 114  ASP114     -0.2456
     81  OD2       26.8280   11.0670   15.7630 O.co2 114  ASP114     -0.2456
@<TRIPOS>BOND
     1    77    76    2
     2    76    75    1
     3    75    74    1
     4    75    78    1
     5    81    79   ar
     6    79    78    1
     7    79    80   ar
     8    21    22    1
     9    73    72   ar
    10    73    71   ar
    11    72    70   ar
    12    17    18    2
    13    17    16    1
    14    22    25    1
    15    22    23    1
    16    71    69   ar
    17    70    69   ar
    18    25    26    1
    19    16    15    1
    20    16    19    1
    21    23    24    2
    22    69    68    1
    23    66    67    2
    24    66    65    1
    25    19    20    1
    26    26    27    2
    27    26    28   am
    28    13    14    1
    29    13    12    1
    30    51    50    1
    31    51    20    1
    32     9     8    2
    33    65    68    1
    34    65    64    1
    35    50    47    1
    36    52    53    1
    37    11    12    1
    38    11    10    1
    39    29    30    1
    40     8     7    1
    41    32    31    2
    42    64    59   am
    43    48    47    1
    44    48    49    2
    45    47    46    1
    46    56    53    1
    47    53    54    1
    48     7    10    1
    49     7     6    1
    50    60    59    2
    51    31    30    1
    52    59    58    1
    53    30    33    1
    54    46    40   am
    55    33    34    1
    56    55    54    2
    57    34    35    1
    58    57    58    1
    59    58    61    1
    60    40    41    2
    61    40    39    1
    62    37    35   am
    63     4     3    2
    64    44    43    2
    65    35    36    2
    66    38    39    1
    67    63    61    1
    68    39    42    1
    69    61    62    1
    70    43    45   am
    71    43    42    1
    72     3     2    1
    73     2     5    1
    74     2     1    1
