@<TRIPOS>MOLECULE
tmp/1n46B00.pdb
 205 193 0 0 0
SMALL
GASTEIGER

@<TRIPOS>ATOM
      1  N          1.3730  -30.7650  -30.6800 N.3    47  PHE47      -0.1241
      2  CA         0.8830  -29.4500  -31.0990 C.3    47  PHE47       0.1605
      3  C         -0.2260  -29.0610  -30.1540 C.2    47  PHE47       0.2264
      4  O         -0.2150  -28.0050  -29.5800 O.2    47  PHE47      -0.2867
      5  CB         0.4850  -29.4580  -32.5910 C.3    47  PHE47       0.0534
      6  CG        -0.2030  -28.1880  -33.1190 C.ar   47  PHE47      -0.0203
      7  CD1        0.5050  -27.1120  -33.5590 C.ar   47  PHE47      -0.0042
      8  CD2       -1.5540  -28.1700  -33.2940 C.ar   47  PHE47      -0.0042
      9  CE1       -0.1440  -26.0200  -34.0800 C.ar   47  PHE47      -0.0003
     10  CE2       -2.2150  -27.0990  -33.8210 C.ar   47  PHE47      -0.0003
     11  CZ        -1.5070  -26.0240  -34.2290 C.ar   47  PHE47      -0.0000
     12  N          0.9730  -27.4260  -27.1320 N.3    50  PHE50      -0.1227
     13  CA         1.4390  -26.0300  -27.2610 C.3    50  PHE50       0.1736
     14  C          0.2710  -25.0720  -27.4100 C.2    50  PHE50       0.2596
     15  O          0.2640  -23.9890  -26.8070 O.2    50  PHE50      -0.2718
     16  CB         2.4910  -25.9040  -28.3870 C.3    50  PHE50       0.0547
     17  CG         3.6770  -26.7880  -28.1980 C.ar   50  PHE50      -0.0202
     18  CD1        4.3030  -26.8610  -26.9830 C.ar   50  PHE50      -0.0042
     19  CD2        4.1540  -27.6000  -29.2220 C.ar   50  PHE50      -0.0042
     20  CE1        5.4000  -27.6830  -26.7970 C.ar   50  PHE50      -0.0003
     21  CE2        5.2420  -28.4130  -29.0250 C.ar   50  PHE50      -0.0003
     22  CZ         5.8720  -28.4510  -27.8170 C.ar   50  PHE50      -0.0000
     23  N         -0.7660  -25.4090  -28.1760 N.am   51  THR51      -0.1953
     24  CA        -1.8250  -24.4050  -28.3260 C.3    51  THR51       0.1897
     25  C         -2.6380  -24.1640  -27.0610 C.2    51  THR51       0.2313
     26  O         -3.3720  -23.1690  -26.9160 O.2    51  THR51      -0.2863
     27  CB        -2.7750  -24.6970  -29.4970 C.3    51  THR51       0.1794
     28  OG1       -3.4350  -25.9560  -29.3010 O.3    51  THR51      -0.2208
     29  CG2       -2.0050  -24.7810  -30.7900 C.3    51  THR51       0.0378
     30  N         -1.3410  -23.5770  -24.2680 N.3    53  ILE53      -0.1231
     31  CA        -0.7130  -22.4420  -23.5780 C.3    53  ILE53       0.1692
     32  C         -0.4810  -21.1700  -24.4440 C.2    53  ILE53       0.2591
     33  O         -0.0310  -20.1200  -23.9700 O.2    53  ILE53      -0.2718
     34  CB         0.6230  -22.8700  -22.9210 C.3    53  ILE53       0.0266
     35  CG1        1.7810  -22.9280  -23.9150 C.3    53  ILE53       0.0019
     36  CG2        0.4590  -24.2080  -22.2190 C.3    53  ILE53       0.0020
     37  CD1        3.0370  -23.4530  -23.3660 C.3    53  ILE53       0.0001
     38  N         -0.8020  -21.2430  -25.7070 N.am   54  ILE54      -0.1980
     39  CA        -0.5980  -20.1390  -26.5870 C.3    54  ILE54       0.1595
     40  C         -1.4840  -18.9770  -26.2380 C.2    54  ILE54       0.2287
     41  O         -1.0220  -17.8480  -26.3760 O.2    54  ILE54      -0.2864
     42  CB        -0.7290  -20.5990  -28.0610 C.3    54  ILE54       0.0276
     43  CG1        0.1940  -19.7980  -28.9610 C.3    54  ILE54       0.0022
     44  CG2       -2.1800  -20.5600  -28.5230 C.3    54  ILE54       0.0022
     45  CD1        1.5620  -20.3020  -28.9640 C.3    54  ILE54       0.0001
     46  N          0.0970  -17.0960  -23.6540 N.3    57  ALA57      -0.1245
     47  CA         1.3600  -16.5550  -24.2060 C.3    57  ALA57       0.1562
     48  C          1.1170  -15.2320  -24.9470 C.2    57  ALA57       0.2260
     49  O          1.8550  -14.2790  -24.7360 O.2    57  ALA57      -0.2867
     50  CB         2.0090  -17.5470  -25.0950 C.3    57  ALA57       0.0290
     51  N         -0.1340  -12.1790  -22.7400 N.3    60  ARG60      -0.1231
     52  CA         1.0240  -11.5980  -22.0880 C.3    60  ARG60       0.1694
     53  C          1.7240  -10.5440  -22.9190 C.2    60  ARG60       0.2591
     54  O          2.0560   -9.4840  -22.3760 O.2    60  ARG60      -0.2718
     55  CB         1.9820  -12.6680  -21.6260 C.3    60  ARG60       0.0321
     56  CG         1.3630  -13.4090  -20.4560 C.3    60  ARG60       0.0489
     57  CD         1.9840  -14.7150  -19.9600 C.3    60  ARG60       0.2205
     58  NE         3.4310  -14.7340  -19.9860 N.pl3  60  ARG60      -0.0865
     59  CZ         4.1790  -15.5610  -19.2280 C.cat  60  ARG60       0.5346
     60  NH1        3.5800  -16.4150  -18.3770 N.pl3  60  ARG60       0.1354
     61  NH2        5.5360  -15.5370  -19.3440 N.pl3  60  ARG60       0.1354
     62  N          1.9850  -10.8300  -24.1980 N.am   61  VAL61      -0.1980
     63  CA         2.5710   -9.8650  -25.1030 C.3    61  VAL61       0.1595
     64  C          1.6230   -8.7260  -25.2620 C.2    61  VAL61       0.2287
     65  O          2.0290   -7.5820  -25.2530 O.2    61  VAL61      -0.2864
     66  CB         2.9380  -10.4540  -26.5110 C.3    61  VAL61       0.0276
     67  CG1        3.6480   -9.3880  -27.3480 C.3    61  VAL61       0.0022
     68  CG2        3.8600  -11.6200  -26.3540 C.3    61  VAL61       0.0022
     69  N          5.3340  -12.7960  -32.2070 N.3    88  MET88      -0.1245
     70  CA         6.2240  -13.9270  -32.2600 C.3    88  MET88       0.1570
     71  C          7.6750  -13.4960  -32.0580 C.2    88  MET88       0.2261
     72  O          8.4740  -14.2410  -31.4500 O.2    88  MET88      -0.2867
     73  CB         6.0610  -14.6690  -33.6190 C.3    88  MET88       0.0387
     74  CG         6.9510  -15.9570  -33.7950 C.3    88  MET88       0.0595
     75  SD         6.8000  -17.1380  -32.4360 S.3    88  MET88      -0.1393
     76  CE         5.2420  -17.0750  -32.1050 C.3    88  MET88       0.0692
     77  N          7.6240  -13.2720  -28.2130 N.3    91  MET91      -0.1230
     78  CA         7.4830  -14.6090  -27.6410 C.3    91  MET91       0.1702
     79  C          8.7510  -15.3970  -27.7710 C.2    91  MET91       0.2593
     80  O          9.0760  -16.1240  -26.8340 O.2    91  MET91      -0.2718
     81  CB         6.3600  -15.4260  -28.2160 C.3    91  MET91       0.0401
     82  CG         4.9840  -14.8370  -28.1490 C.3    91  MET91       0.0596
     83  SD         3.8330  -15.8320  -29.1160 S.3    91  MET91      -0.1393
     84  CE         3.7350  -15.0610  -30.2760 C.3    91  MET91       0.0692
     85  N          9.5090  -15.2110  -28.8560 N.am   92  SER92      -0.1952
     86  CA        10.6840  -16.0030  -29.1030 C.3    92  SER92       0.1924
     87  C         11.8610  -15.5080  -28.2750 C.2    92  SER92       0.2314
     88  O         12.6820  -16.3090  -27.8270 O.2    92  SER92      -0.2863
     89  CB        11.0240  -15.9990  -30.5880 C.3    92  SER92       0.2116
     90  OG         9.9270  -16.5250  -31.3260 O.3    92  SER92      -0.2180
     91  N         11.5650  -14.0170  -25.1460 N.3    94  ARG94      -0.1231
     92  CA        11.2290  -14.6110  -23.8350 C.3    94  ARG94       0.1694
     93  C         11.5410  -16.0710  -23.7780 C.2    94  ARG94       0.2591
     94  O         12.1080  -16.5420  -22.7580 O.2    94  ARG94      -0.2718
     95  CB         9.7490  -14.4680  -23.4920 C.3    94  ARG94       0.0321
     96  CG         9.3910  -13.0790  -23.2380 C.3    94  ARG94       0.0489
     97  CD         7.9500  -12.7810  -22.9850 C.3    94  ARG94       0.2205
     98  NE         7.7850  -11.4660  -22.3730 N.pl3  94  ARG94      -0.0865
     99  CZ         6.7750  -11.1170  -21.5890 C.cat  94  ARG94       0.5346
    100  NH1        5.8160  -11.9890  -21.3270 N.pl3  94  ARG94       0.1354
    101  NH2        6.7210   -9.9100  -21.0290 N.pl3  94  ARG94       0.1354
    102  N         11.1840  -16.8510  -24.8100 N.am   95  ALA95      -0.1980
    103  CA        11.4760  -18.3020  -24.7150 C.3    95  ALA95       0.1597
    104  C         12.9910  -18.4320  -24.6460 C.2    95  ALA95       0.2287
    105  O         13.5190  -19.0260  -23.6990 O.2    95  ALA95      -0.2864
    106  CB        10.9060  -19.1010  -25.8470 C.3    95  ALA95       0.0319
    107  N         14.8520  -17.8800  -21.4950 N.3    98  ARG98      -0.1245
    108  CA        14.7020  -18.9760  -20.5600 C.3    98  ARG98       0.1563
    109  C         15.3340  -20.2760  -21.0310 C.2    98  ARG98       0.2260
    110  O         14.9410  -21.3810  -20.6480 O.2    98  ARG98      -0.2867
    111  CB        13.2470  -19.1890  -20.2790 C.3    98  ARG98       0.0307
    112  CG        12.5870  -17.9870  -19.6490 C.3    98  ARG98       0.0489
    113  CD        11.2300  -18.3780  -19.1240 C.3    98  ARG98       0.2205
    114  NE        10.2870  -17.3230  -19.4250 N.pl3  98  ARG98      -0.0865
    115  CZ         9.4770  -17.3130  -20.4570 C.cat  98  ARG98       0.5346
    116  NH1        9.4580  -18.3200  -21.3320 N.pl3  98  ARG98       0.1354
    117  NH2        8.6800  -16.2810  -20.5940 N.pl3  98  ARG98       0.1354
    118  N          8.9150  -22.7200  -21.8540 N.3   108  LEU108     -0.1231
    119  CA         7.8490  -21.8780  -22.4070 C.3   108  LEU108      0.1693
    120  C          6.8170  -21.3540  -21.3980 C.2   108  LEU108      0.2592
    121  O          6.1870  -22.0960  -20.6350 O.2   108  LEU108     -0.2718
    122  CB         7.1050  -22.5660  -23.5430 C.3   108  LEU108      0.0284
    123  CG         7.9450  -23.1400  -24.6770 C.3   108  LEU108      0.0019
    124  CD1        6.9940  -23.9050  -25.5860 C.3   108  LEU108      0.0001
    125  CD2        8.7770  -22.1100  -25.4230 C.3   108  LEU108      0.0001
    126  N          6.5990  -20.0530  -21.4570 N.am  109  ASN109     -0.1974
    127  CA         5.7740  -19.3730  -20.5110 C.3   109  ASN109      0.1688
    128  C          6.2610  -19.4330  -19.0590 C.2   109  ASN109      0.2292
    129  O          5.5260  -19.0740  -18.1620 O.2   109  ASN109     -0.2864
    130  CB         4.3460  -19.8910  -20.5870 C.3   109  ASN109      0.1181
    131  CG         3.5740  -19.2430  -21.6470 C.2   109  ASN109      0.2629
    132  OD1        4.1210  -18.5630  -22.5730 O.2   109  ASN109     -0.2716
    133  ND2        2.2870  -19.4600  -21.5720 N.am  109  ASN109     -0.0877
    134  N          9.6490  -29.0060  -29.7250 N.3   119  LEU119     -0.1245
    135  CA         9.1110  -27.7490  -30.2230 C.3   119  LEU119      0.1561
    136  C          9.1110  -27.8160  -31.7480 C.2   119  LEU119      0.2260
    137  O          8.1110  -27.5330  -32.3430 O.2   119  LEU119     -0.2867
    138  CB         9.9470  -26.6080  -29.6910 C.3   119  LEU119      0.0270
    139  CG         9.4230  -25.2180  -29.9560 C.3   119  LEU119      0.0019
    140  CD1        8.0570  -25.0230  -29.3080 C.3   119  LEU119      0.0001
    141  CD2       10.4670  -24.2400  -29.4420 C.3   119  LEU119      0.0001
    142  N          6.4970  -30.4910  -32.8120 N.3   122  GLY122     -0.1210
    143  CA         5.2000  -29.9220  -32.4580 C.3   122  GLY122      0.1956
    144  C          4.6910  -28.7840  -33.3130 C.2   122  GLY122      0.2612
    145  O          3.6070  -28.2790  -33.0330 O.2   122  GLY122     -0.2717
    146  N          5.4190  -28.3950  -34.3590 N.am  123  GLY123     -0.1942
    147  CA         4.8570  -27.4870  -35.3480 C.3   123  GLY123      0.2014
    148  C          5.7630  -26.3530  -35.8200 C.2   123  GLY123      0.2638
    149  O          5.4680  -25.7010  -36.8170 O.2   123  GLY123     -0.2714
    150  N          6.8200  -26.0410  -35.0880 N.am  124  LEU124     -0.1977
    151  CA         7.6430  -24.8700  -35.3910 C.3   124  LEU124      0.1596
    152  C          8.6640  -25.2180  -36.4120 C.2   124  LEU124      0.2287
    153  O          9.2720  -24.3240  -36.9650 O.2   124  LEU124     -0.2864
    154  CB         8.3520  -24.3270  -34.1050 C.3   124  LEU124      0.0297
    155  CG         7.4840  -23.4970  -33.1510 C.3   124  LEU124      0.0022
    156  CD1        8.3010  -22.5400  -32.2940 C.3   124  LEU124      0.0001
    157  CD2        6.4810  -22.7100  -33.8940 C.3   124  LEU124      0.0001
    158  N         15.1050  -20.5850  -32.3790 N.3   131  ILE131     -0.1245
    159  CA        14.8870  -20.1110  -31.0110 C.3   131  ILE131      0.1561
    160  C         15.9760  -20.7390  -30.1200 C.2   131  ILE131      0.2260
    161  O         16.6530  -20.0330  -29.3680 O.2   131  ILE131     -0.2867
    162  CB        13.4130  -20.3370  -30.5020 C.3   131  ILE131      0.0252
    163  CG1       12.4290  -19.7620  -31.5410 C.3   131  ILE131      0.0019
    164  CG2       13.2500  -19.6320  -29.1940 C.3   131  ILE131      0.0019
    165  CD1       10.9210  -19.8650  -31.2620 C.3   131  ILE131      0.0001
    166  N          8.2230  -17.9980  -38.8920 N.3   213  HIS213     -0.1241
    167  CA         7.0200  -18.4980  -38.2100 C.3   213  HIS213      0.1621
    168  C          5.7610  -18.2410  -39.0070 C.2   213  HIS213      0.2264
    169  O          4.9090  -19.1000  -38.9960 O.2   213  HIS213     -0.2867
    170  CB         6.8930  -17.8830  -36.8020 C.3   213  HIS213      0.0745
    171  CG         5.6820  -18.2970  -36.0600 C.ar  213  HIS213      0.0817
    172  ND1        4.6350  -17.4410  -35.8480 N.ar  213  HIS213     -0.2268
    173  CD2        5.3750  -19.4510  -35.4200 C.ar  213  HIS213      0.1154
    174  CE1        3.7000  -18.0710  -35.1500 C.ar  213  HIS213      0.1986
    175  NE2        4.1220  -19.2950  -34.8870 N.ar  213  HIS213     -0.2212
    176  N          1.1530  -25.3710  -40.5440 N.3   220  MET220     -0.1245
    177  CA         0.3660  -25.8310  -39.3770 C.3   220  MET220      0.1570
    178  C         -1.1150  -25.8510  -39.7460 C.2   220  MET220      0.2261
    179  O         -1.8120  -26.8060  -39.4520 O.2   220  MET220     -0.2867
    180  CB         0.5620  -24.9590  -38.1380 C.3   220  MET220      0.0387
    181  CG         1.8960  -25.1030  -37.3580 C.3   220  MET220      0.0595
    182  SD         1.9800  -23.7890  -36.0310 S.3   220  MET220     -0.1393
    183  CE         3.6350  -23.1910  -36.2550 C.3   220  MET220      0.0692
    184  N         -4.9900  -17.2230  -31.1960 N.3   233  PHE233     -0.1241
    185  CA        -3.8710  -17.6340  -32.0560 C.3   233  PHE233      0.1605
    186  C         -4.1350  -17.2050  -33.5210 C.2   233  PHE233      0.2264
    187  O         -3.2570  -16.6330  -34.2300 O.2   233  PHE233     -0.2867
    188  CB        -3.7500  -19.1410  -31.9460 C.3   233  PHE233      0.0534
    189  CG        -2.4930  -19.7690  -32.5570 C.ar  233  PHE233     -0.0203
    190  CD1       -1.2680  -19.0870  -32.6660 C.ar  233  PHE233     -0.0042
    191  CD2       -2.5580  -21.0880  -33.0170 C.ar  233  PHE233     -0.0042
    192  CE1       -0.1400  -19.7050  -33.2440 C.ar  233  PHE233     -0.0003
    193  CE2       -1.4370  -21.7110  -33.5590 C.ar  233  PHE233     -0.0003
    194  CZ        -0.2240  -21.0280  -33.6730 C.ar  233  PHE233     -0.0000
    195  N         -2.3320  -14.3600  -35.8120 N.3   237  PHE237     -0.1241
    196  CA        -1.4420  -14.8950  -36.8510 C.3   237  PHE237      0.1605
    197  C         -2.0570  -15.0640  -38.2350 C.2   237  PHE237      0.2264
    198  O         -1.3150  -15.3480  -39.1930 O.2   237  PHE237     -0.2867
    199  CB        -0.8090  -16.1680  -36.3220 C.3   237  PHE237      0.0534
    200  CG         0.1660  -15.9070  -35.2250 C.ar  237  PHE237     -0.0203
    201  CD1        1.3230  -15.2080  -35.4660 C.ar  237  PHE237     -0.0042
    202  CD2       -0.0790  -16.3230  -33.9520 C.ar  237  PHE237     -0.0042
    203  CE1        2.2260  -14.9620  -34.4370 C.ar  237  PHE237     -0.0003
    204  CE2        0.8300  -16.0840  -32.9090 C.ar  237  PHE237     -0.0003
    205  CZ         1.9580  -15.3920  -33.1460 C.ar  237  PHE237     -0.0000
@<TRIPOS>BOND
     1   176   177    1
     2   178   179    2
     3   178   177    1
     4   177   180    1
     5   198   197    2
     6   168   169    2
     7   168   167    1
     8   166   167    1
     9   197   196    1
    10   167   170    1
    11   180   181    1
    12   181   182    1
    13   153   152    2
    14   196   199    1
    15   196   195    1
    16   149   148    2
    17   170   171    1
    18   152   151    1
    19   199   200    1
    20   183   182    1
    21   171   172   ar
    22   171   173   ar
    23   172   174   ar
    24   148   147    1
    25   148   150   am
    26   201   200   ar
    27   201   203   ar
    28   173   175   ar
    29   151   150    1
    30   151   154    1
    31   147   146    1
    32   200   202   ar
    33   174   175   ar
    34   203   205   ar
    35   146   144   am
    36   187   186    2
    37    11     9   ar
    38    11    10   ar
    39   154   155    1
    40     9     7   ar
    41   202   204   ar
    42   157   155    1
    43    10     8   ar
    44    74    73    1
    45    74    75    1
    46   194   193   ar
    47   194   192   ar
    48    73    70    1
    49   193   191   ar
    50     7     6   ar
    51   186   185    1
    52   144   145    2
    53   144   143    1
    54     8     6   ar
    55   192   190   ar
    56   155   156    1
    57   205   204   ar
    58     6     5    1
    59   191   189   ar
    60   142   143    1
    61   190   189   ar
    62     5     2    1
    63   189   188    1
    64    75    76    1
    65   158   159    1
    66   137   136    2
    67    70    69    1
    68    70    71    1
    69    71    72    2
    70   185   188    1
    71   185   184    1
    72   136   135    1
    73   163   165    1
    74   163   162    1
    75    90    89    1
    76     2     1    1
    77     2     3    1
    78   159   162    1
    79   159   160    1
    80    29    27    1
    81    89    86    1
    82   162   164    1
    83    84    83    1
    84   135   134    1
    85   135   138    1
    86     3     4    2
    87   160   161    2
    88   139   138    1
    89   139   141    1
    90   139   140    1
    91    27    28    1
    92    27    24    1
    93    19    21   ar
    94    19    17   ar
    95    83    82    1
    96    86    85    1
    97    86    87    1
    98    21    22   ar
    99    45    43    1
   100    43    42    1
   101    85    79   am
   102    44    42    1
   103    16    17    1
   104    16    13    1
   105    24    23    1
   106    24    25    1
   107    87    88    2
   108    81    82    1
   109    81    78    1
   110    77    78    1
   111    17    18   ar
   112    23    14   am
   113    42    39    1
   114    22    20   ar
   115    79    78    1
   116    79    80    2
   117    14    13    1
   118    14    15    2
   119    67    66    1
   120    13    12    1
   121    25    26    2
   122    18    20   ar
   123    39    40    1
   124    39    38    1
   125    66    68    1
   126    66    63    1
   127    41    40    2
   128   106   103    1
   129    38    32   am
   130   124   123    1
   131   125   123    1
   132    64    65    2
   133    64    63    1
   134    91    92    1
   135    63    62    1
   136    50    47    1
   137    48    49    2
   138    48    47    1
   139   102   103    1
   140   102    93   am
   141   103   104    1
   142   123   122    1
   143   104   105    2
   144    32    33    2
   145    32    31    1
   146    30    31    1
   147    47    46    1
   148    62    53   am
   149    35    37    1
   150    35    34    1
   151    92    93    1
   152    92    95    1
   153    93    94    2
   154    31    34    1
   155   122   119    1
   156    95    96    1
   157    96    97    1
   158    97    98    1
   159    34    36    1
   160    53    54    2
   161    53    52    1
   162    51    52    1
   163   132   131    2
   164   119   118    1
   165   119   120    1
   166    98    99    2
   167    52    55    1
   168   131   133   am
   169   131   130    1
   170    55    56    1
   171    99   100    1
   172    99   101    1
   173   107   108    1
   174   126   120   am
   175   126   127    1
   176   120   121    2
   177   116   115    1
   178   109   110    2
   179   109   108    1
   180   117   115    1
   181   130   127    1
   182   108   111    1
   183   127   128    1
   184   115   114    2
   185    56    57    1
   186   111   112    1
   187    58    57    1
   188    58    59    2
   189   112   113    1
   190   114   113    1
   191    61    59    1
   192    59    60    1
   193   128   129    2
