@<TRIPOS>MOLECULE
tmp/1n47A00.pdb
 115 114 0 0 0
SMALL
GASTEIGER

@<TRIPOS>ATOM
      1  N        -28.6680   48.5010  -27.4300 N.3    84  ALA84      -0.1231
      2  CA       -28.2210   49.9020  -27.2130 C.3    84  ALA84       0.1694
      3  C        -28.3100   50.2260  -25.7270 C.2    84  ALA84       0.2592
      4  O        -29.0100   49.5070  -25.0190 O.2    84  ALA84      -0.2718
      5  CB       -29.0640   50.8740  -28.0060 C.3    84  ALA84       0.0304
      6  N        -27.6110   51.2570  -25.2330 N.am   85  ASP85      -0.1974
      7  CA       -26.7160   52.1110  -26.0260 C.3    85  ASP85       0.1709
      8  C        -25.2370   51.9900  -25.6430 C.2    85  ASP85       0.2293
      9  O        -24.4130   52.6100  -26.3030 O.2    85  ASP85      -0.2864
     10  CB       -27.0620   53.5980  -25.8510 C.3    85  ASP85       0.1436
     11  CG       -28.1290   54.0900  -26.8110 C.2    85  ASP85       0.3671
     12  OD1      -27.7940   54.5380  -27.9400 O.co2  85  ASP85      -0.2456
     13  OD2      -29.3380   54.0980  -26.4860 O.co2  85  ASP85      -0.2456
     14  N        -30.2980   60.9360  -21.9680 N.3   101  ARG101     -0.1231
     15  CA       -30.2150   59.5010  -22.0970 C.3   101  ARG101      0.1694
     16  C        -29.9690   59.0960  -23.5520 C.2   101  ARG101      0.2593
     17  O        -29.4730   59.9010  -24.3450 O.2   101  ARG101     -0.2718
     18  CB       -31.4480   58.8140  -21.4990 C.3   101  ARG101      0.0321
     19  CG       -32.7740   59.5570  -21.6400 C.3   101  ARG101      0.0489
     20  CD       -33.8660   59.0380  -20.6730 C.3   101  ARG101      0.2205
     21  NE       -33.7380   59.6340  -19.3320 N.pl3 101  ARG101     -0.0865
     22  CZ       -33.9620   59.0030  -18.1690 C.cat 101  ARG101      0.5346
     23  NH1      -34.3330   57.7200  -18.1420 N.pl3 101  ARG101      0.1354
     24  NH2      -33.8040   59.6650  -17.0270 N.pl3 101  ARG101      0.1354
     25  N        -30.2760   57.8410  -23.8900 N.am  102  GLY102     -0.1942
     26  CA       -30.0470   57.3560  -25.2430 C.3   102  GLY102      0.2014
     27  C        -28.5700   57.2930  -25.5770 C.2   102  GLY102      0.2639
     28  O        -27.7620   56.7780  -24.7980 O.2   102  GLY102     -0.2714
     29  N        -28.1950   57.8520  -26.7180 N.am  103  GLY103     -0.1939
     30  CA       -26.8260   57.7890  -27.1830 C.3   103  GLY103      0.2014
     31  C        -25.8210   58.6890  -26.4930 C.2   103  GLY103      0.2638
     32  O        -24.6430   58.7190  -26.8780 O.2   103  GLY103     -0.2714
     33  N        -26.2650   59.4420  -25.4910 N.am  104  PHE104     -0.1973
     34  CA       -25.3480   60.3130  -24.7370 C.3   104  PHE104      0.1639
     35  C        -24.8690   59.6190  -23.4550 C.2   104  PHE104      0.2290
     36  O        -24.0810   60.1610  -22.6900 O.2   104  PHE104     -0.2864
     37  CB       -26.0040   61.6530  -24.4260 C.3   104  PHE104      0.0560
     38  CG       -26.4780   62.3780  -25.6410 C.ar  104  PHE104     -0.0200
     39  CD1      -25.6030   63.1560  -26.3970 C.ar  104  PHE104     -0.0042
     40  CD2      -27.8000   62.2940  -26.0330 C.ar  104  PHE104     -0.0042
     41  CE1      -26.0600   63.8380  -27.5480 C.ar  104  PHE104     -0.0003
     42  CE2      -28.2610   62.9640  -27.1720 C.ar  104  PHE104     -0.0003
     43  CZ       -27.3960   63.7340  -27.9330 C.ar  104  PHE104     -0.0000
     44  N        -24.2220   51.0150  -30.2030 N.3   127  TYR127     -0.1227
     45  CA       -25.1920   51.4210  -31.2180 C.3   127  TYR127      0.1736
     46  C        -24.7090   52.6320  -31.9930 C.2   127  TYR127      0.2596
     47  O        -24.3770   53.6620  -31.4070 O.2   127  TYR127     -0.2718
     48  CB       -26.5570   51.7040  -30.5870 C.3   127  TYR127      0.0548
     49  CG       -27.5770   52.2790  -31.5490 C.ar  127  TYR127     -0.0200
     50  CD1      -27.5280   53.6160  -31.9150 C.ar  127  TYR127     -0.0009
     51  CD2      -28.5810   51.4830  -32.0950 C.ar  127  TYR127     -0.0009
     52  CE1      -28.4490   54.1530  -32.7930 C.ar  127  TYR127      0.0417
     53  CE2      -29.5000   52.0010  -32.9780 C.ar  127  TYR127      0.0417
     54  CZ       -29.4410   53.3460  -33.3230 C.ar  127  TYR127      0.1957
     55  OH       -30.3650   53.8890  -34.2090 O.3   127  TYR127     -0.2866
     56  N        -24.6840   52.5240  -33.3170 N.am  128  SER128     -0.1938
     57  CA       -24.1400   53.6020  -34.1040 C.3   128  SER128      0.2055
     58  C        -25.1040   54.7470  -34.2650 C.2   128  SER128      0.2643
     59  O        -26.1710   54.5810  -34.8580 O.2   128  SER128     -0.2714
     60  CB       -23.7010   53.1140  -35.4800 C.3   128  SER128      0.2130
     61  OG       -22.8370   51.9950  -35.3850 O.3   128  SER128     -0.2179
     62  N        -24.7020   55.8940  -33.7210 N.am  129  ASN129     -0.1957
     63  CA       -25.3940   57.1600  -33.8570 C.3   129  ASN129      0.1819
     64  C        -24.7160   57.9070  -34.9860 C.2   129  ASN129      0.2621
     65  O        -23.7760   57.4010  -35.5750 O.2   129  ASN129     -0.2715
     66  CB       -25.2460   58.0060  -32.5870 C.3   129  ASN129      0.1195
     67  CG       -26.0400   57.4610  -31.4170 C.2   129  ASN129      0.2630
     68  OD1      -25.4770   56.8620  -30.5030 O.2   129  ASN129     -0.2716
     69  ND2      -27.3520   57.6670  -31.4380 N.am  129  ASN129     -0.0877
     70  N        -25.1490   59.1370  -35.2370 N.am  130  ALA130     -0.1963
     71  CA       -24.6670   59.9090  -36.3740 C.3   130  ALA130      0.1728
     72  C        -23.2240   60.2740  -36.2220 C.2   130  ALA130      0.2616
     73  O        -22.5220   60.4060  -37.2100 O.2   130  ALA130     -0.2715
     74  CB       -25.5310   61.1830  -36.5830 C.3   130  ALA130      0.0334
     75  N        -22.7810   60.4450  -34.9780 N.am  131  TRP131     -0.1974
     76  CA       -21.3990   60.8670  -34.6930 C.3   131  TRP131      0.1640
     77  C        -20.4260   59.6740  -34.5690 C.2   131  TRP131      0.2290
     78  O        -19.2110   59.8500  -34.4100 O.2   131  TRP131     -0.2864
     79  CB       -21.3720   61.7170  -33.4140 C.3   131  TRP131      0.0576
     80  CG       -22.1040   61.0550  -32.2850 C.ar  131  TRP131      0.0006
     81  CD1      -21.6660   60.0010  -31.5230 C.ar  131  TRP131      0.0946
     82  CD2      -23.4210   61.3640  -31.8130 C.ar  131  TRP131      0.0152
     83  NE1      -22.6300   59.6400  -30.6160 N.ar  131  TRP131     -0.2442
     84  CE2      -23.7150   60.4660  -30.7660 C.ar  131  TRP131      0.0810
     85  CE3      -24.3950   62.3070  -32.1780 C.ar  131  TRP131      0.0012
     86  CZ2      -24.9300   60.4890  -30.0830 C.ar  131  TRP131      0.0191
     87  CZ3      -25.5880   62.3330  -31.4980 C.ar  131  TRP131      0.0001
     88  CH2      -25.8490   61.4390  -30.4600 C.ar  131  TRP131      0.0015
     89  N        -31.7910   51.6320  -25.0940 N.3   212  GLY212     -0.1210
     90  CA       -32.3200   52.2610  -26.2880 C.3   212  GLY212      0.1956
     91  C        -33.5950   53.0610  -26.0860 C.2   212  GLY212      0.2612
     92  O        -34.4330   52.7350  -25.2370 O.2   212  GLY212     -0.2717
     93  N        -33.7240   54.1200  -26.8850 N.am  213  LEU213     -0.1965
     94  CA       -34.9050   54.9750  -26.8640 C.3   213  LEU213      0.1728
     95  C        -36.1170   54.2980  -27.5000 C.2   213  LEU213      0.2616
     96  O        -37.2250   54.7560  -27.3160 O.2   213  LEU213     -0.2715
     97  CB       -34.6430   56.3110  -27.5730 C.3   213  LEU213      0.0311
     98  CG       -33.7820   57.3340  -26.8260 C.3   213  LEU213      0.0022
     99  CD1      -33.8190   58.7150  -27.4790 C.3   213  LEU213      0.0001
    100  CD2      -34.2070   57.4320  -25.3890 C.3   213  LEU213      0.0001
    101  N        -35.9240   53.2170  -28.2440 N.am  214  ASN214     -0.1972
    102  CA       -37.0650   52.5570  -28.8690 C.3   214  ASN214      0.1688
    103  C        -37.3640   51.1700  -28.3430 C.2   214  ASN214      0.2292
    104  O        -36.4710   50.4190  -27.9710 O.2   214  ASN214     -0.2864
    105  CB       -36.9100   52.5090  -30.3760 C.3   214  ASN214      0.1181
    106  CG       -37.1880   53.8420  -31.0170 C.2   214  ASN214      0.2629
    107  OD1      -36.2710   54.5420  -31.4410 O.2   214  ASN214     -0.2716
    108  ND2      -38.4630   54.2140  -31.0790 N.am  214  ASN214     -0.0877
    109  N        -34.9750   47.6630  -28.4110 N.3   217  VAL217     -0.1245
    110  CA       -33.6480   47.9680  -28.9240 C.3   217  VAL217      0.1561
    111  C        -32.7280   48.1670  -27.7220 C.2   217  VAL217      0.2260
    112  O        -32.1420   49.2330  -27.5300 O.2   217  VAL217     -0.2867
    113  CB       -33.7790   49.1950  -29.8000 C.3   217  VAL217      0.0252
    114  CG1      -32.4390   49.7220  -30.2250 C.3   217  VAL217      0.0019
    115  CG2      -34.6540   48.8290  -31.0000 C.3   217  VAL217      0.0019
@<TRIPOS>BOND
     1    73    72    2
     2    74    71    1
     3    71    72    1
     4    71    70    1
     5    72    75   am
     6    65    64    2
     7    60    61    1
     8    60    57    1
     9    70    64   am
    10    64    63    1
    11    75    76    1
    12    59    58    2
    13    76    77    1
    14    76    79    1
    15    77    78    2
    16    58    57    1
    17    58    62   am
    18    55    54    1
    19    57    56    1
    20    63    62    1
    21    63    66    1
    22    79    80    1
    23    54    53   ar
    24    54    52   ar
    25    56    46   am
    26    53    51   ar
    27    52    50   ar
    28    66    67    1
    29    80    82   ar
    30    80    81   ar
    31    85    82   ar
    32    85    87   ar
    33    51    49   ar
    34    46    47    2
    35    46    45    1
    36    50    49   ar
    37    82    84   ar
    38    49    48    1
    39    81    83   ar
    40    87    88   ar
    41   107   106    2
    42    69    67   am
    43    67    68    2
    44    45    48    1
    45    45    44    1
    46   108   106   am
    47   106   105    1
    48   115   113    1
    49    84    83   ar
    50    84    86   ar
    51    88    86   ar
    52   105   102    1
    53   114   113    1
    54   113   110    1
    55   110   109    1
    56   110   111    1
    57   102   103    1
    58   102   101    1
    59   103   104    2
    60   101    95   am
    61     5     2    1
    62    12    11   ar
    63    43    41   ar
    64    43    42   ar
    65   111   112    2
    66    97    94    1
    67    97    98    1
    68    41    39   ar
    69    95    96    2
    70    95    94    1
    71    99    98    1
    72     1     2    1
    73     2     3    1
    74    30    29    1
    75    30    31    1
    76    42    40   ar
    77    93    94    1
    78    93    91   am
    79    32    31    2
    80    98   100    1
    81    11    13   ar
    82    11    10    1
    83    29    27   am
    84    31    33   am
    85    39    38   ar
    86     9     8    2
    87    90    91    1
    88    90    89    1
    89    91    92    2
    90    40    38   ar
    91     7    10    1
    92     7     8    1
    93     7     6    1
    94     3     6   am
    95     3     4    2
    96    38    37    1
    97    27    26    1
    98    27    28    2
    99    33    34    1
   100    26    25    1
   101    34    37    1
   102    34    35    1
   103    17    16    2
   104    25    16   am
   105    16    15    1
   106    35    36    2
   107    15    14    1
   108    15    18    1
   109    19    18    1
   110    19    20    1
   111    20    21    1
   112    21    22    2
   113    22    23    1
   114    22    24    1
