@<TRIPOS>MOLECULE
tmp/1n4hA00.pdb
 141 133 0 0 0
SMALL
GASTEIGER

@<TRIPOS>ATOM
      1  N         25.2470   21.1570    4.4280 N.3    63  ILE63      -0.1231
      2  CA        24.1850   20.1720    4.2210 C.3    63  ILE63       0.1692
      3  C         24.7730   18.8040    3.9010 C.2    63  ILE63       0.2591
      4  O         24.2380   17.7790    4.3230 O.2    63  ILE63      -0.2718
      5  CB        23.2390   20.5820    3.0750 C.3    63  ILE63       0.0266
      6  CG1       22.4020   21.7950    3.4930 C.3    63  ILE63       0.0019
      7  CG2       22.3330   19.4290    2.7110 C.3    63  ILE63       0.0020
      8  CD1       21.4160   22.2600    2.4250 C.3    63  ILE63       0.0001
      9  N         25.8750   18.7870    3.1550 N.am   64  GLN64      -0.1979
     10  CA        26.5170   17.5280    2.8010 C.3    64  GLN64       0.1601
     11  C         26.9500   16.7980    4.0640 C.2    64  GLN64       0.2287
     12  O         26.8720   15.5750    4.1390 O.2    64  GLN64      -0.2864
     13  CB        27.7000   17.7820    1.8460 C.3    64  GLN64       0.0394
     14  CG        27.2000   18.2120    0.4650 C.3    64  GLN64       0.0908
     15  CD        28.2930   18.4020   -0.5820 C.2    64  GLN64       0.2608
     16  OE1       28.0050   18.4320   -1.7830 O.2    64  GLN64      -0.2717
     17  NE2       29.5360   18.5410   -0.1400 N.am   64  GLN64      -0.0878
     18  N         24.0480   15.0850    5.7390 N.3    67  VAL67      -0.1245
     19  CA        23.7400   13.8300    5.0620 C.3    67  VAL67       0.1561
     20  C         24.6240   12.7260    5.6530 C.2    67  VAL67       0.2260
     21  O         24.1600   11.6160    5.9130 O.2    67  VAL67      -0.2867
     22  CB        23.9890   13.9430    3.5440 C.3    67  VAL67       0.0252
     23  CG1       23.7700   12.5930    2.8720 C.3    67  VAL67       0.0019
     24  CG2       23.0470   14.9920    2.9390 C.3    67  VAL67       0.0019
     25  N         23.4490    9.2410    7.6640 N.3    71  LYS71      -0.1245
     26  CA        23.8890    7.9110    7.2490 C.3    71  LYS71       0.1561
     27  C         24.5570    7.1140    8.3790 C.2    71  LYS71       0.2260
     28  O         24.5360    5.8800    8.3700 O.2    71  LYS71      -0.2867
     29  CB        24.8530    8.0260    6.0650 C.3    71  LYS71       0.0271
     30  CG        24.2460    8.7010    4.8480 C.3    71  LYS71       0.0035
     31  CD        25.3000    9.0220    3.8020 C.3    71  LYS71       0.0206
     32  CE        25.9700    7.7700    3.2570 C.3    71  LYS71       0.1093
     33  NZ        26.9680    8.1470    2.2210 N.3    71  LYS71      -0.1314
     34  N         18.1460    5.8770   11.6670 N.3    76  PHE76      -0.1227
     35  CA        17.7520    6.6120   10.4660 C.3    76  PHE76       0.1736
     36  C         17.8280    5.7170    9.2400 C.2    76  PHE76       0.2595
     37  O         16.8880    5.6650    8.4470 O.2    76  PHE76      -0.2718
     38  CB        18.6430    7.8470   10.2590 C.3    76  PHE76       0.0547
     39  CG        18.3190    8.6340    9.0050 C.ar   76  PHE76      -0.0202
     40  CD1       18.8890    8.2910    7.7780 C.ar   76  PHE76      -0.0042
     41  CD2       17.4430    9.7140    9.0500 C.ar   76  PHE76      -0.0042
     42  CE1       18.5920    9.0150    6.6210 C.ar   76  PHE76      -0.0003
     43  CE2       17.1400   10.4450    7.8910 C.ar   76  PHE76      -0.0003
     44  CZ        17.7170   10.0920    6.6800 C.ar   76  PHE76      -0.0000
     45  N         18.9430    5.0070    9.0880 N.am   77  MET77      -0.1979
     46  CA        19.1230    4.1360    7.9370 C.3    77  MET77       0.1605
     47  C         18.1640    2.9470    7.9200 C.2    77  MET77       0.2287
     48  O         18.0710    2.2330    6.9190 O.2    77  MET77      -0.2864
     49  CB        20.5750    3.6550    7.8520 C.3    77  MET77       0.0413
     50  CG        21.5770    4.7730    7.5540 C.3    77  MET77       0.0598
     51  SD        21.1180    5.8270    6.1360 S.3    77  MET77      -0.1393
     52  CE        21.8180    4.8910    4.7170 C.3    77  MET77       0.0692
     53  N         13.8250    3.9860    2.4580 N.3    81  GLN81      -0.1245
     54  CA        14.5330    5.0090    1.6940 C.3    81  GLN81       0.1566
     55  C         13.7020    6.2250    1.3170 C.2    81  GLN81       0.2260
     56  O         14.2180    7.3460    1.2860 O.2    81  GLN81      -0.2867
     57  CB        15.1440    4.4010    0.4330 C.3    81  GLN81       0.0367
     58  CG        15.9880    5.3820   -0.3530 C.3    81  GLN81       0.0905
     59  CD        16.8940    4.6930   -1.3460 C.2    81  GLN81       0.2608
     60  OE1       16.4290    4.0550   -2.2950 O.2    81  GLN81      -0.2717
     61  NE2       18.2010    4.8080   -1.1280 N.am   81  GLN81      -0.0878
     62  N         13.6720    8.4970    4.2760 N.3    84  GLN84      -0.1231
     63  CA        15.0080    9.0290    4.5180 C.3    84  GLN84       0.1698
     64  C         15.1760   10.2900    3.6630 C.2    84  GLN84       0.2592
     65  O         15.6240   11.3310    4.1470 O.2    84  GLN84      -0.2718
     66  CB        16.0760    8.0120    4.1180 C.3    84  GLN84       0.0381
     67  CG        16.2010    6.7830    5.0190 C.3    84  GLN84       0.0905
     68  CD        17.2760    5.8260    4.5110 C.2    84  GLN84       0.2608
     69  OE1       18.1700    6.2330    3.7770 O.2    84  GLN84      -0.2717
     70  NE2       17.2020    4.5630    4.9160 N.am   84  GLN84      -0.0878
     71  N         14.8190   10.1750    2.3840 N.am   85  ILE85      -0.1966
     72  CA        14.9080   11.2830    1.4330 C.3    85  ILE85       0.1727
     73  C         14.0670   12.4730    1.9050 C.2    85  ILE85       0.2616
     74  O         14.5390   13.6140    1.9140 O.2    85  ILE85      -0.2715
     75  CB        14.4260   10.8380    0.0130 C.3    85  ILE85       0.0290
     76  CG1       15.4100    9.8270   -0.5880 C.3    85  ILE85       0.0022
     77  CG2       14.2990   12.0430   -0.9170 C.3    85  ILE85       0.0023
     78  CD1       16.7680   10.3940   -0.8610 C.3    85  ILE85       0.0001
     79  N         12.8290   12.2030    2.3100 N.am   86  LEU86      -0.1977
     80  CA        11.9350   13.2590    2.7840 C.3    86  LEU86       0.1596
     81  C         12.4800   13.9730    4.0130 C.2    86  LEU86       0.2287
     82  O         12.4480   15.1930    4.0890 O.2    86  LEU86      -0.2864
     83  CB        10.5540   12.6870    3.1140 C.3    86  LEU86       0.0297
     84  CG         9.7120   12.3130    1.9020 C.3    86  LEU86       0.0022
     85  CD1        8.4100   11.6440    2.3660 C.3    86  LEU86       0.0001
     86  CD2        9.4250   13.5750    1.0840 C.3    86  LEU86       0.0001
     87  N         15.5850   14.2460    5.0030 N.3    88  LEU88      -0.1231
     88  CA        16.7440   15.0390    4.6240 C.3    88  LEU88       0.1693
     89  C         16.3800   16.2930    3.8310 C.2    88  LEU88       0.2591
     90  O         16.8760   17.3800    4.1210 O.2    88  LEU88      -0.2718
     91  CB        17.7300   14.1720    3.8370 C.3    88  LEU88       0.0284
     92  CG        18.5720   13.2790    4.7590 C.3    88  LEU88       0.0019
     93  CD1       19.3330   12.2410    3.9560 C.3    88  LEU88       0.0001
     94  CD2       19.5340   14.1590    5.5560 C.3    88  LEU88       0.0001
     95  N         15.5050   16.1530    2.8410 N.am   89  LYS89      -0.1980
     96  CA        15.1060   17.3030    2.0280 C.3    89  LYS89       0.1596
     97  C         14.4160   18.3840    2.8610 C.2    89  LYS89       0.2287
     98  O         14.6930   19.5720    2.7160 O.2    89  LYS89      -0.2864
     99  CB        14.1740   16.8550    0.8970 C.3    89  LYS89       0.0298
    100  CG        13.6260   18.0060    0.0530 C.3    89  LYS89       0.0038
    101  CD        12.6770   17.4990   -1.0320 C.3    89  LYS89       0.0206
    102  CE        12.0830   18.6470   -1.8570 C.3    89  LYS89       0.1093
    103  NZ        13.0670   19.2850   -2.7760 N.3    89  LYS89      -0.1314
    104  N         17.3320   19.1160    6.2840 N.3    92  CYS92      -0.1235
    105  CA        18.7700   19.3680    6.2050 C.3    92  CYS92       0.1677
    106  C         19.1510   20.7720    6.6680 C.2    92  CYS92       0.2270
    107  O         20.0730   20.9380    7.4670 O.2    92  CYS92      -0.2867
    108  CB        19.2910   19.1400    4.7810 C.3    92  CYS92       0.0956
    109  SG        18.5490   20.1980    3.5160 S.3    92  CYS92      -0.0801
    110  N         24.5730   21.9660   -7.6300 N.3   237  PRO237     -0.2102
    111  CA        23.4600   21.1130   -8.0470 C.3   237  PRO237      0.1504
    112  C         22.5610   20.6420   -6.8980 C.2   237  PRO237      0.2575
    113  O         21.3340   20.7030   -7.0110 O.2   237  PRO237     -0.2718
    114  CB        24.1660   19.9710   -8.7650 C.3   237  PRO237      0.0282
    115  CG        25.2850   20.6970   -9.4570 C.3   237  PRO237      0.0208
    116  CD        25.8110   21.6030   -8.3410 C.3   237  PRO237      0.0893
    117  N         23.1590   20.1930   -5.7950 N.am  238  LEU238     -0.1980
    118  CA        22.3710   19.7200   -4.6520 C.3   238  LEU238      0.1596
    119  C         21.5040   20.8280   -4.0600 C.2   238  LEU238      0.2287
    120  O         20.3850   20.5790   -3.6080 O.2   238  LEU238     -0.2864
    121  CB        23.2800   19.1480   -3.5580 C.3   238  LEU238      0.0297
    122  CG        22.5620   18.7120   -2.2710 C.3   238  LEU238      0.0022
    123  CD1       21.5420   17.6330   -2.5970 C.3   238  LEU238      0.0001
    124  CD2       23.5730   18.1960   -1.2500 C.3   238  LEU238      0.0001
    125  N         18.5290   21.2090   -6.2590 N.3   241  GLU241     -0.1231
    126  CA        17.6570   20.0600   -6.0530 C.3   241  GLU241      0.1699
    127  C         16.8320   20.1250   -4.7760 C.2   241  GLU241      0.2592
    128  O         15.6640   19.7470   -4.7710 O.2   241  GLU241     -0.2718
    129  CB        18.4830   18.7670   -6.0550 C.3   241  GLU241      0.0402
    130  CG        17.6840   17.5050   -5.7110 C.3   241  GLU241      0.1161
    131  CD        18.5330   16.2430   -5.7310 C.2   241  GLU241      0.3649
    132  OE1       19.1050   15.9190   -6.7920 O.co2 241  GLU241     -0.2457
    133  OE2       18.6290   15.5690   -4.6870 O.co2 241  GLU241     -0.2457
    134  N         17.4340   20.6070   -3.6950 N.am  242  LEU242     -0.1980
    135  CA        16.7400   20.6820   -2.4160 C.3   242  LEU242      0.1596
    136  C         15.7820   21.8530   -2.2560 C.2   242  LEU242      0.2287
    137  O         14.7550   21.7210   -1.5970 O.2   242  LEU242     -0.2864
    138  CB        17.7540   20.7290   -1.2710 C.3   242  LEU242      0.0297
    139  CG        18.7050   19.5390   -1.1380 C.3   242  LEU242      0.0022
    140  CD1       19.7520   19.8410   -0.0830 C.3   242  LEU242      0.0001
    141  CD2       17.9260   18.2920   -0.7790 C.3   242  LEU242      0.0001
@<TRIPOS>BOND
     1   115   114    1
     2   115   116    1
     3   114   111    1
     4   116   110    1
     5   111   110    1
     6   111   112    1
     7   113   112    2
     8   112   117   am
     9   132   131   ar
    10   125   126    1
    11   129   126    1
    12   129   130    1
    13   126   127    1
    14   117   118    1
    15   131   130    1
    16   131   133   ar
    17   127   128    2
    18   127   134   am
    19   118   119    1
    20   118   121    1
    21   119   120    2
    22   134   135    1
    23   121   122    1
    24   103   102    1
    25   123   122    1
    26   135   136    1
    27   135   138    1
    28    60    59    2
    29   122   124    1
    30   136   137    2
    31   102   101    1
    32    16    15    2
    33    59    61   am
    34    59    58    1
    35   138   139    1
    36   139   141    1
    37   139   140    1
    38   101   100    1
    39    77    75    1
    40    78    76    1
    41    76    75    1
    42    15    17   am
    43    15    14    1
    44    58    57    1
    45    75    72    1
    46   100    99    1
    47    57    54    1
    48    14    13    1
    49    99    96    1
    50    86    84    1
    51    56    55    2
    52    55    54    1
    53    72    73    1
    54    72    71    1
    55    54    53    1
    56    13    10    1
    57    84    85    1
    58    84    83    1
    59    73    74    2
    60    73    79   am
    61    96    95    1
    62    96    97    1
    63    33    32    1
    64    79    80    1
    65    71    64   am
    66     8     6    1
    67     7     5    1
    68    98    97    2
    69    80    83    1
    70    80    81    1
    71    10     9    1
    72    10    11    1
    73    95    89   am
    74    23    22    1
    75    24    22    1
    76     5     6    1
    77     5     2    1
    78     9     3   am
    79    32    31    1
    80   109   108    1
    81    22    19    1
    82    64    65    2
    83    64    63    1
    84    69    68    2
    85    31    30    1
    86    89    90    2
    87    89    88    1
    88    91    88    1
    89    91    92    1
    90     3     2    1
    91     3     4    2
    92    93    92    1
    93    81    82    2
    94    11    12    2
    95    66    63    1
    96    66    67    1
    97     2     1    1
    98    62    63    1
    99    68    70   am
   100    68    67    1
   101    88    87    1
   102    52    51    1
   103    92    94    1
   104   108   105    1
   105    30    29    1
   106    19    20    1
   107    19    18    1
   108    20    21    2
   109    29    26    1
   110    51    50    1
   111   105   104    1
   112   105   106    1
   113    42    44   ar
   114    42    40   ar
   115   106   107    2
   116    44    43   ar
   117    48    47    2
   118    26    25    1
   119    26    27    1
   120    50    49    1
   121    40    39   ar
   122    49    46    1
   123    43    41   ar
   124    47    46    1
   125    46    45    1
   126    28    27    2
   127    37    36    2
   128    39    41   ar
   129    39    38    1
   130    45    36   am
   131    36    35    1
   132    38    35    1
   133    35    34    1
