@<TRIPOS>MOLECULE
tmp/1n4hA01.pdb
 218 208 0 0 0
SMALL
GASTEIGER

@<TRIPOS>ATOM
      1  N         30.4250   16.9160   11.8390 N.3    20  CYS20      -0.1221
      2  CA        30.1900   18.3510   11.7890 C.3    20  CYS20       0.1808
      3  C         31.2580   18.9300   10.8760 C.2    20  CYS20       0.2601
      4  O         32.3680   18.4120   10.8240 O.2    20  CYS20      -0.2717
      5  CB        30.3060   18.9790   13.1750 C.3    20  CYS20       0.0970
      6  SG        28.8440   18.7420   14.1750 S.3    20  CYS20      -0.0800
      7  N         30.9270   19.9860   10.1430 N.am   21  GLN21      -0.1965
      8  CA        31.9110   20.5950    9.2610 C.3    21  GLN21       0.1733
      9  C         33.0900   21.0770   10.0990 C.2    21  GLN21       0.2616
     10  O         34.2290   21.0770    9.6360 O.2    21  GLN21      -0.2715
     11  CB        31.3140   21.7820    8.5090 C.3    21  GLN21       0.0408
     12  CG        32.3590   22.5630    7.7310 C.3    21  GLN21       0.0908
     13  CD        31.7970   23.7700    7.0240 C.2    21  GLN21       0.2608
     14  OE1       32.5450   24.5800    6.4760 O.2    21  GLN21      -0.2717
     15  NE2       30.4780   23.9000    7.0250 N.am   21  GLN21      -0.0878
     16  N         32.7990   21.4890   11.3310 N.am   22  TYR22      -0.1974
     17  CA        33.8180   21.9740   12.2620 C.3    22  TYR22       0.1639
     18  C         33.7860   21.2140   13.5800 C.2    22  TYR22       0.2290
     19  O         32.7670   21.1990   14.2680 O.2    22  TYR22      -0.2864
     20  CB        33.6080   23.4600   12.5590 C.3    22  TYR22       0.0560
     21  CG        34.1050   24.3840   11.4800 C.ar   22  TYR22      -0.0198
     22  CD1       35.4670   24.5050   11.2190 C.ar   22  TYR22      -0.0009
     23  CD2       33.2170   25.1420   10.7240 C.ar   22  TYR22      -0.0009
     24  CE1       35.9330   25.3620   10.2310 C.ar   22  TYR22       0.0417
     25  CE2       33.6710   26.0010    9.7330 C.ar   22  TYR22       0.0417
     26  CZ        35.0290   26.1050    9.4920 C.ar   22  TYR22       0.1957
     27  OH        35.4830   26.9460    8.5090 O.3    22  TYR22      -0.2866
     28  N         27.0840   32.0600   -0.4020 N.3    55  CYS55      -0.1235
     29  CA        26.2360   31.5500    0.6630 C.3    55  CYS55       0.1677
     30  C         25.6730   30.1750    0.3040 C.2    55  CYS55       0.2270
     31  O         25.6030   29.2840    1.1510 O.2    55  CYS55      -0.2867
     32  CB        25.0970   32.5360    0.9350 C.3    55  CYS55       0.0956
     33  SG        25.6370   34.0130    1.8270 S.3    55  CYS55      -0.0801
     34  N         28.4160   27.5470    0.8720 N.3    58  GLN58      -0.1231
     35  CA        28.6370   27.2890    2.2910 C.3    58  GLN58       0.1698
     36  C         27.4950   26.4490    2.8660 C.2    58  GLN58       0.2592
     37  O         27.7250   25.5060    3.6190 O.2    58  GLN58      -0.2718
     38  CB        28.7610   28.6130    3.0560 C.3    58  GLN58       0.0381
     39  CG        28.8550   28.4710    4.5710 C.3    58  GLN58       0.0905
     40  CD        29.8900   27.4390    5.0120 C.2    58  GLN58       0.2608
     41  OE1       31.0430   27.4580    4.5570 O.2    58  GLN58      -0.2717
     42  NE2       29.4820   26.5360    5.9070 N.am   58  GLN58      -0.0878
     43  N         26.2640   26.7940    2.5110 N.am   59  ILE59      -0.1980
     44  CA        25.1040   26.0490    2.9850 C.3    59  ILE59       0.1595
     45  C         25.1330   24.6180    2.4480 C.2    59  ILE59       0.2287
     46  O         24.8670   23.6680    3.1810 O.2    59  ILE59      -0.2864
     47  CB        23.7870   26.7170    2.5310 C.3    59  ILE59       0.0276
     48  CG1       23.5700   28.0210    3.3070 C.3    59  ILE59       0.0022
     49  CG2       22.6170   25.7520    2.7150 C.3    59  ILE59       0.0022
     50  CD1       22.3110   28.7810    2.8790 C.3    59  ILE59       0.0001
     51  N         27.6590   22.5790    4.2970 N.3    62  ALA62      -0.1245
     52  CA        27.1410   22.1680    5.5960 C.3    62  ALA62       0.1562
     53  C         26.0590   21.0880    5.4800 C.2    62  ALA62       0.2260
     54  O         25.9590   20.2080    6.3400 O.2    62  ALA62      -0.2867
     55  CB        26.5970   23.3920    6.3490 C.3    62  ALA62       0.0290
     56  N         27.3850   17.5540    5.0640 N.3    65  TYR65      -0.1241
     57  CA        27.7910   16.9640    6.3350 C.3    65  TYR65       0.1605
     58  C         26.5810   16.4490    7.1200 C.2    65  TYR65       0.2264
     59  O         26.7020   15.4980    7.8880 O.2    65  TYR65      -0.2867
     60  CB        28.5720   17.9800    7.1710 C.3    65  TYR65       0.0534
     61  CG        30.0500   18.0300    6.8230 C.ar   65  TYR65      -0.0201
     62  CD1       30.8950   16.9630    7.1400 C.ar   65  TYR65      -0.0009
     63  CD2       30.5990   19.1280    6.1600 C.ar   65  TYR65      -0.0009
     64  CE1       32.2520   16.9860    6.8070 C.ar   65  TYR65       0.0417
     65  CE2       31.9570   19.1610    5.8180 C.ar   65  TYR65       0.0417
     66  CZ        32.7770   18.0860    6.1470 C.ar   65  TYR65       0.1957
     67  OH        34.1220   18.1090    5.8210 O.3    65  TYR65      -0.2866
     68  N         18.4420   21.7820    6.1760 N.3    93  LEU93      -0.1245
     69  CA        18.7620   23.1530    6.5490 C.3    93  LEU93       0.1561
     70  C         18.4780   23.4270    8.0240 C.2    93  LEU93       0.2260
     71  O         19.1900   24.2050    8.6670 O.2    93  LEU93      -0.2867
     72  CB        18.0010   24.1470    5.6590 C.3    93  LEU93       0.0270
     73  CG        18.4570   25.6150    5.7910 C.3    93  LEU93       0.0019
     74  CD1       19.9680   25.7320    5.5560 C.3    93  LEU93       0.0001
     75  CD2       17.6890   26.4830    4.7870 C.3    93  LEU93       0.0001
     76  N         21.4190   22.2190    9.8430 N.3    96  VAL96      -0.1231
     77  CA        22.5440   23.1420    9.6400 C.3    96  VAL96       0.1692
     78  C         22.3840   24.3690   10.5450 C.2    96  VAL96       0.2591
     79  O         23.3560   24.8730   11.1190 O.2    96  VAL96      -0.2718
     80  CB        22.6320   23.6090    8.1680 C.3    96  VAL96       0.0266
     81  CG1       23.6220   24.7660    8.0340 C.3    96  VAL96       0.0020
     82  CG2       23.0780   22.4350    7.2850 C.3    96  VAL96       0.0020
     83  N         21.1510   24.8470   10.6720 N.am   97  LEU97      -0.1980
     84  CA        20.8790   26.0080   11.5070 C.3    97  LEU97       0.1596
     85  C         21.1960   25.6870   12.9630 C.2    97  LEU97       0.2287
     86  O         21.7740   26.5100   13.6700 O.2    97  LEU97      -0.2864
     87  CB        19.4140   26.4270   11.3820 C.3    97  LEU97       0.0297
     88  CG        19.0390   27.7460   12.0620 C.3    97  LEU97       0.0022
     89  CD1       19.7850   28.8880   11.3750 C.3    97  LEU97       0.0001
     90  CD2       17.5220   27.9690   11.9840 C.3    97  LEU97       0.0001
     91  N         23.2750   23.3810   14.0430 N.3    99  ARG99      -0.1231
     92  CA        24.7280   23.2380   14.1260 C.3    99  ARG99       0.1694
     93  C         25.4440   24.5860   14.0680 C.2    99  ARG99       0.2591
     94  O         26.4960   24.7700   14.6800 O.2    99  ARG99      -0.2718
     95  CB        25.2410   22.3380   12.9970 C.3    99  ARG99       0.0321
     96  CG        24.9580   20.8600   13.2040 C.3    99  ARG99       0.0489
     97  CD        25.4930   20.0400   12.0420 C.3    99  ARG99       0.2205
     98  NE        25.5960   18.6280   12.3920 N.pl3  99  ARG99      -0.0865
     99  CZ        26.2070   17.7100   11.6510 C.cat  99  ARG99       0.5346
    100  NH1       26.7740   18.0470   10.4990 N.pl3  99  ARG99       0.1354
    101  NH2       26.2680   16.4560   12.0770 N.pl3  99  ARG99       0.1354
    102  N         24.8730   25.5240   13.3250 N.am  100  MET100     -0.1979
    103  CA        25.4680   26.8490   13.2000 C.3   100  MET100      0.1605
    104  C         25.6470   27.5000   14.5800 C.2   100  MET100      0.2287
    105  O         26.5600   28.3030   14.7910 O.2   100  MET100     -0.2864
    106  CB        24.5800   27.7320   12.3150 C.3   100  MET100      0.0413
    107  CG        25.1250   29.1310   12.0960 C.3   100  MET100      0.0598
    108  SD        23.9350   30.2030   11.2660 S.3   100  MET100     -0.1393
    109  CE        22.9170   30.6950   12.6200 C.3   100  MET100      0.0692
    110  N         26.8100   26.3000   17.1340 N.3   102  ARG102     -0.1231
    111  CA        28.0800   25.8630   17.7150 C.3   102  ARG102      0.1694
    112  C         29.1670   26.8370   17.2900 C.2   102  ARG102      0.2591
    113  O         30.1890   26.9650   17.9560 O.2   102  ARG102     -0.2718
    114  CB        28.4870   24.4770   17.1940 C.3   102  ARG102      0.0321
    115  CG        27.4770   23.3600   17.3740 C.3   102  ARG102      0.0489
    116  CD        27.8990   22.1310   16.5670 C.3   102  ARG102      0.2205
    117  NE        29.1200   21.4990   17.0750 N.pl3 102  ARG102     -0.0865
    118  CZ        30.2510   21.3760   16.3840 C.cat 102  ARG102      0.5346
    119  NH1       30.3340   21.8470   15.1460 N.pl3 102  ARG102      0.1354
    120  NH2       31.3000   20.7630   16.9240 N.pl3 102  ARG102      0.1354
    121  N         28.9490   27.4990   16.1580 N.am  103  ALA103     -0.1980
    122  CA        29.9250   28.4380   15.6100 C.3   103  ALA103      0.1597
    123  C         29.4120   29.8690   15.6260 C.2   103  ALA103      0.2287
    124  O         29.6630   30.6410   14.6960 O.2   103  ALA103     -0.2864
    125  CB        30.2820   28.0310   14.1910 C.3   103  ALA103      0.0319
    126  N         28.9280   35.1240   13.4070 N.3   111  VAL111     -0.1231
    127  CA        28.8590   33.7130   13.0580 C.3   111  VAL111      0.1692
    128  C         30.0560   33.3610   12.1780 C.2   111  VAL111      0.2592
    129  O         30.5410   34.2040   11.4150 O.2   111  VAL111     -0.2718
    130  CB        27.5500   33.3860   12.2920 C.3   111  VAL111      0.0266
    131  CG1       27.5810   34.0120   10.8930 C.3   111  VAL111      0.0020
    132  CG2       27.3640   31.8750   12.2070 C.3   111  VAL111      0.0020
    133  N         30.5360   32.1260   12.3020 N.am  112  LEU112     -0.1966
    134  CA        31.6770   31.6600   11.5200 C.3   112  LEU112      0.1728
    135  C         31.2510   31.5120   10.0630 C.2   112  LEU112      0.2616
    136  O         30.3470   30.7340    9.7510 O.2   112  LEU112     -0.2715
    137  CB        32.1710   30.3160   12.0670 C.3   112  LEU112      0.0311
    138  CG        33.3230   29.5700   11.3840 C.3   112  LEU112      0.0022
    139  CD1       34.5790   30.4390   11.3210 C.3   112  LEU112      0.0001
    140  CD2       33.6030   28.2920   12.1760 C.3   112  LEU112      0.0001
    141  N         31.9050   32.2670    9.1830 N.am  113  PHE113     -0.1974
    142  CA        31.5950   32.2400    7.7590 C.3   113  PHE113      0.1639
    143  C         32.8850   32.3180    6.9540 C.2   113  PHE113      0.2290
    144  O         33.6510   33.2710    7.0790 O.2   113  PHE113     -0.2864
    145  CB        30.6860   33.4150    7.3990 C.3   113  PHE113      0.0560
    146  CG        30.2160   33.3990    5.9750 C.ar  113  PHE113     -0.0200
    147  CD1       29.3380   32.4120    5.5280 C.ar  113  PHE113     -0.0042
    148  CD2       30.6610   34.3580    5.0730 C.ar  113  PHE113     -0.0042
    149  CE1       28.9100   32.3800    4.1990 C.ar  113  PHE113     -0.0003
    150  CE2       30.2390   34.3360    3.7360 C.ar  113  PHE113     -0.0003
    151  CZ        29.3610   33.3440    3.3020 C.ar  113  PHE113     -0.0000
    152  N         26.5190   40.0940    5.5710 N.3   123  PHE123     -0.1241
    153  CA        25.5650   39.5960    4.5800 C.3   123  PHE123      0.1605
    154  C         24.7090   40.6950    3.9520 C.2   123  PHE123      0.2264
    155  O         23.6710   40.4100    3.3520 O.2   123  PHE123     -0.2867
    156  CB        24.6400   38.5670    5.2350 C.3   123  PHE123      0.0534
    157  CG        25.3660   37.4000    5.8380 C.ar  123  PHE123     -0.0203
    158  CD1       25.8750   36.3870    5.0300 C.ar  123  PHE123     -0.0042
    159  CD2       25.5530   37.3180    7.2130 C.ar  123  PHE123     -0.0042
    160  CE1       26.5560   35.3070    5.5860 C.ar  123  PHE123     -0.0003
    161  CE2       26.2340   36.2430    7.7790 C.ar  123  PHE123     -0.0003
    162  CZ        26.7360   35.2350    6.9650 C.ar  123  PHE123     -0.0000
    163  N         23.0710   40.5810    0.3780 N.3   126  LEU126     -0.1245
    164  CA        21.9930   39.6400    0.0850 C.3   126  LEU126      0.1561
    165  C         20.6610   40.3600   -0.0370 C.2   126  LEU126      0.2260
    166  O         19.7450   39.8810   -0.6990 O.2   126  LEU126     -0.2867
    167  CB        21.8770   38.5830    1.1810 C.3   126  LEU126      0.0270
    168  CG        23.0190   37.5860    1.3090 C.3   126  LEU126      0.0019
    169  CD1       22.7010   36.6290    2.4420 C.3   126  LEU126      0.0001
    170  CD2       23.2000   36.8310   -0.0060 C.3   126  LEU126      0.0001
    171  N         15.9740   37.7790    6.8970 N.3   131  LEU131     -0.1231
    172  CA        16.3680   36.3800    6.9940 C.3   131  LEU131      0.1693
    173  C         17.5690   36.2700    7.9240 C.2   131  LEU131      0.2591
    174  O         17.5600   35.4950    8.8820 O.2   131  LEU131     -0.2718
    175  CB        16.7350   35.8120    5.6150 C.3   131  LEU131      0.0284
    176  CG        17.5290   34.4900    5.6530 C.3   131  LEU131      0.0019
    177  CD1       16.7010   33.4100    6.3520 C.3   131  LEU131      0.0001
    178  CD2       17.8950   34.0460    4.2490 C.3   131  LEU131      0.0001
    179  N         18.6030   37.0580    7.6460 N.am  132  VAL132     -0.1980
    180  CA        19.8050   37.0320    8.4730 C.3   132  VAL132      0.1595
    181  C         19.4900   37.3190    9.9430 C.2   132  VAL132      0.2287
    182  O         19.9120   36.5710   10.8310 O.2   132  VAL132     -0.2864
    183  CB        20.8430   38.0380    7.9530 C.3   132  VAL132      0.0276
    184  CG1       22.0860   37.9980    8.8220 C.3   132  VAL132      0.0022
    185  CG2       21.1950   37.7060    6.5120 C.3   132  VAL132      0.0022
    186  N         17.9160   34.3850   11.5830 N.3   135  ALA135     -0.1231
    187  CA        18.8870   33.3170   11.7910 C.3   135  ALA135      0.1694
    188  C         19.7340   33.6360   13.0190 C.2   135  ALA135      0.2592
    189  O         19.9550   32.7740   13.8760 O.2   135  ALA135     -0.2718
    190  CB        19.7690   33.1780   10.5710 C.3   135  ALA135      0.0304
    191  N         20.1990   34.8810   13.1040 N.am  136  PHE136     -0.1976
    192  CA        21.0180   35.3220   14.2290 C.3   136  PHE136      0.1639
    193  C         20.2780   35.3060   15.5660 C.2   136  PHE136      0.2290
    194  O         20.8340   34.8760   16.5810 O.2   136  PHE136     -0.2864
    195  CB        21.5690   36.7280   13.9630 C.3   136  PHE136      0.0560
    196  CG        22.8170   36.7420   13.1230 C.ar  136  PHE136     -0.0200
    197  CD1       22.8580   36.0840   11.8980 C.ar  136  PHE136     -0.0042
    198  CD2       23.9540   37.4220   13.5550 C.ar  136  PHE136     -0.0042
    199  CE1       24.0140   36.1030   11.1140 C.ar  136  PHE136     -0.0003
    200  CE2       25.1170   37.4460   12.7760 C.ar  136  PHE136     -0.0003
    201  CZ        25.1430   36.7850   11.5550 C.ar  136  PHE136     -0.0000
    202  N         12.6170   30.0450   10.0060 N.3   212  VAL212     -0.1245
    203  CA        13.8240   30.6270    9.4330 C.3   212  VAL212      0.1561
    204  C         14.1150   29.9700    8.0880 C.2   212  VAL212      0.2260
    205  O         14.4090   30.6490    7.1060 O.2   212  VAL212     -0.2867
    206  CB        15.0490   30.4330   10.3530 C.3   212  VAL212      0.0252
    207  CG1       16.2980   30.9980    9.6840 C.3   212  VAL212      0.0019
    208  CG2       14.8110   31.1250   11.6820 C.3   212  VAL212      0.0019
    209  N         14.1190   31.2840    4.1500 N.3   216  HIS216     -0.1241
    210  CA        15.2460   31.0810    3.2440 C.3   216  HIS216      0.1621
    211  C         14.6920   30.6740    1.8840 C.2   216  HIS216      0.2264
    212  O         15.0520   31.2470    0.8600 O.2   216  HIS216     -0.2867
    213  CB        16.1770   29.9820    3.7770 C.3   216  HIS216      0.0745
    214  CG        17.1160   29.4200    2.7480 C.ar  216  HIS216      0.0817
    215  ND1       16.7850   28.3510    1.9420 N.ar  216  HIS216     -0.2268
    216  CD2       18.3610   29.7990    2.3720 C.ar  216  HIS216      0.1154
    217  CE1       17.7840   28.0980    1.1150 C.ar  216  HIS216      0.1986
    218  NE2       18.7530   28.9640    1.3550 N.ar  216  HIS216     -0.2212
@<TRIPOS>BOND
     1   166   165    2
     2    28    29    1
     3   165   164    1
     4   170   168    1
     5   164   163    1
     6   164   167    1
     7    30    29    1
     8    30    31    2
     9    29    32    1
    10   212   211    2
    11    34    35    1
    12    32    33    1
    13   217   218   ar
    14   217   215   ar
    15   167   168    1
    16   168   169    1
    17   218   216   ar
    18   211   210    1
    19   215   214   ar
    20    35    36    1
    21    35    38    1
    22   216   214   ar
    23    45    44    1
    24    45    46    2
    25    43    36   am
    26    43    44    1
    27    47    49    1
    28    47    44    1
    29    47    48    1
    30   214   213    1
    31    36    37    2
    32    50    48    1
    33    38    39    1
    34   210   213    1
    35   210   209    1
    36   151   150   ar
    37   151   149   ar
    38   155   154    2
    39   150   148   ar
    40   154   153    1
    41   149   147   ar
    42   178   176    1
    43    51    52    1
    44    41    40    2
    45    39    40    1
    46   153   156    1
    47   153   152    1
    48    75    73    1
    49    40    42   am
    50   158   160   ar
    51   158   157   ar
    52    56    57    1
    53   148   146   ar
    54   156   157    1
    55    53    52    1
    56    53    54    2
    57   147   146   ar
    58    74    73    1
    59   160   162   ar
    60    52    55    1
    61   175   176    1
    62   175   172    1
    63   176   177    1
    64    72    73    1
    65    72    69    1
    66    65    66   ar
    67    65    63   ar
    68    67    66    1
    69   157   159   ar
    70   146   145    1
    71    66    64   ar
    72    63    61   ar
    73    68    69    1
    74    57    58    1
    75    57    60    1
    76    14    13    2
    77   185   183    1
    78    69    70    1
    79    64    62   ar
    80    61    62   ar
    81    61    60    1
    82   171   172    1
    83   143   144    2
    84   143   142    1
    85   162   161   ar
    86   172   173    1
    87    13    15   am
    88    13    12    1
    89   205   204    2
    90    58    59    2
    91   159   161   ar
    92    82    80    1
    93   145   142    1
    94   179   173   am
    95   179   180    1
    96    12    11    1
    97   142   141    1
    98   173   174    2
    99   183   180    1
   100   183   184    1
   101    70    71    2
   102    81    80    1
   103   204   203    1
   104    80    77    1
   105   180   181    1
   106    11     8    1
   107    27    26    1
   108   141   135   am
   109     8     9    1
   110     8     7    1
   111   203   202    1
   112   203   206    1
   113    26    25   ar
   114    26    24   ar
   115    10     9    2
   116    77    76    1
   117    77    78    1
   118   207   206    1
   119    25    23   ar
   120   136   135    2
   121   181   182    2
   122   135   134    1
   123     9    16   am
   124     7     3   am
   125    24    22   ar
   126   206   208    1
   127   100    99    1
   128    78    83   am
   129    78    79    2
   130   190   187    1
   131    83    84    1
   132    23    21   ar
   133     4     3    2
   134     3     2    1
   135   131   130    1
   136   199   201   ar
   137   199   197   ar
   138    22    21   ar
   139   108   107    1
   140   108   109    1
   141   139   138    1
   142    16    17    1
   143    89    88    1
   144    87    84    1
   145    87    88    1
   146   138   137    1
   147   138   140    1
   148   129   128    2
   149    21    20    1
   150    84    85    1
   151   134   137    1
   152   134   133    1
   153   201   200   ar
   154   186   187    1
   155    99   101    1
   156    99    98    2
   157     2     1    1
   158     2     5    1
   159   187   188    1
   160   197   196   ar
   161    90    88    1
   162    97    98    1
   163    97    96    1
   164   107   106    1
   165   128   133   am
   166   128   127    1
   167   132   130    1
   168    17    20    1
   169    17    18    1
   170   130   127    1
   171   106   103    1
   172   200   198   ar
   173    85    86    2
   174    95    96    1
   175    95    92    1
   176   188   191   am
   177   188   189    2
   178   127   126    1
   179   191   192    1
   180   196   198   ar
   181   196   195    1
   182     5     6    1
   183   103   102    1
   184   103   104    1
   185   102    93   am
   186    18    19    2
   187   195   192    1
   188    91    92    1
   189    93    92    1
   190    93    94    2
   191   125   122    1
   192   192   193    1
   193   104   105    2
   194   124   123    2
   195   119   118    1
   196   193   194    2
   197   122   123    1
   198   122   121    1
   199   121   112   am
   200   118   120    1
   201   118   117    2
   202   116   117    1
   203   116   115    1
   204   110   111    1
   205   114   115    1
   206   114   111    1
   207   112   111    1
   208   112   113    2
