@<TRIPOS>MOLECULE
tmp/1n4mB00.pdb
 164 158 0 0 0
SMALL
GASTEIGER

@<TRIPOS>ATOM
      1  N         -6.8880   22.6860   53.2100 N.3   262  TYR262     -0.1241
      2  CA        -7.3420   24.0180   53.5900 C.3   262  TYR262      0.1605
      3  C         -8.8540   24.1320   53.4040 C.2   262  TYR262      0.2264
      4  O         -9.5570   24.7030   54.2370 O.2   262  TYR262     -0.2867
      5  CB        -6.6480   25.0830   52.7340 C.3   262  TYR262      0.0534
      6  CG        -6.9420   26.5080   53.1920 C.ar  262  TYR262     -0.0201
      7  CD1       -6.2370   27.0860   54.2530 C.ar  262  TYR262     -0.0009
      8  CD2       -7.9670   27.2560   52.6030 C.ar  262  TYR262     -0.0009
      9  CE1       -6.5510   28.3630   54.7130 C.ar  262  TYR262      0.0417
     10  CE2       -8.2820   28.5330   53.0640 C.ar  262  TYR262      0.0417
     11  CZ        -7.5800   29.0830   54.1130 C.ar  262  TYR262      0.1957
     12  OH        -7.9140   30.3490   54.5630 O.3   262  TYR262     -0.2866
     13  N        -11.3220   24.7100   56.6720 N.3   266  LYS266     -0.1231
     14  CA       -12.0410   25.9680   56.7290 C.3   266  LYS266      0.1693
     15  C        -13.4370   25.7360   57.2630 C.2   266  LYS266      0.2592
     16  O        -13.8150   26.2340   58.3310 O.2   266  LYS266     -0.2718
     17  CB       -12.1460   26.5610   55.3280 C.3   266  LYS266      0.0285
     18  CG       -11.3900   27.8530   55.1330 C.3   266  LYS266      0.0035
     19  CD       -12.1840   29.0420   55.6430 C.3   266  LYS266      0.0206
     20  CE       -11.4960   30.3380   55.2240 C.3   266  LYS266      0.1093
     21  NZ       -10.1510   30.4620   55.8510 N.3   266  LYS266     -0.1314
     22  N        -14.1910   24.9400   56.5200 N.am  267  VAL267     -0.1966
     23  CA       -15.5610   24.6580   56.8660 C.3   267  VAL267      0.1727
     24  C        -15.7620   23.7440   58.0650 C.2   267  VAL267      0.2616
     25  O        -16.8580   23.2350   58.2840 O.2   267  VAL267     -0.2715
     26  CB       -16.2920   24.1190   55.6180 C.3   267  VAL267      0.0290
     27  CG1      -16.1390   25.1270   54.4870 C.3   267  VAL267      0.0023
     28  CG2      -15.7300   22.7690   55.2000 C.3   267  VAL267      0.0023
     29  N        -14.7090   23.5460   58.8520 N.am  268  LYS268     -0.1963
     30  CA       -14.7870   22.6970   60.0420 C.3   268  LYS268      0.1728
     31  C        -14.2950   23.4640   61.2630 C.2   268  LYS268      0.2616
     32  O        -13.8950   22.8850   62.2640 O.2   268  LYS268     -0.2715
     33  CB       -13.9440   21.4390   59.8510 C.3   268  LYS268      0.0311
     34  CG       -14.5380   20.4230   58.8930 C.3   268  LYS268      0.0038
     35  CD       -15.7810   19.7930   59.4850 C.3   268  LYS268      0.0206
     36  CE       -16.4290   18.8000   58.5290 C.3   268  LYS268      0.1093
     37  NZ       -17.7020   18.2170   59.0640 N.3   268  LYS268     -0.1314
     38  N        -14.3360   24.7830   61.1680 N.am  269  ASN269     -0.1972
     39  CA       -13.8840   25.6350   62.2490 C.3   269  ASN269      0.1688
     40  C        -12.4690   25.3120   62.7090 C.2   269  ASN269      0.2292
     41  O        -12.0960   25.6160   63.8450 O.2   269  ASN269     -0.2864
     42  CB       -14.8320   25.5450   63.4370 C.3   269  ASN269      0.1181
     43  CG       -14.5450   26.6110   64.4770 C.2   269  ASN269      0.2629
     44  OD1      -14.1380   27.7290   64.1330 O.2   269  ASN269     -0.2716
     45  ND2      -14.7590   26.2800   65.7510 N.am  269  ASN269     -0.0877
     46  N         -2.4290   28.2180   55.1970 N.3   274  PHE274     -0.1241
     47  CA        -1.6080   27.6430   54.1570 C.3   274  PHE274      0.1605
     48  C         -0.1520   27.6730   54.6060 C.2   274  PHE274      0.2264
     49  O          0.5860   26.7130   54.3770 O.2   274  PHE274     -0.2867
     50  CB        -1.7710   28.4300   52.8530 C.3   274  PHE274      0.0534
     51  CG        -2.8530   27.8950   51.9440 C.ar  274  PHE274     -0.0203
     52  CD1       -2.7000   26.6620   51.3030 C.ar  274  PHE274     -0.0042
     53  CD2       -4.0350   28.6110   51.7440 C.ar  274  PHE274     -0.0042
     54  CE1       -3.6970   26.1520   50.4860 C.ar  274  PHE274     -0.0003
     55  CE2       -5.0490   28.1050   50.9210 C.ar  274  PHE274     -0.0003
     56  CZ        -4.8750   26.8700   50.2920 C.ar  274  PHE274     -0.0000
     57  N         -1.7600   30.1040   47.4180 N.3   306  ILE306     -0.1245
     58  CA        -2.8210   30.8920   48.0340 C.3   306  ILE306      0.1561
     59  C         -3.6710   31.4650   46.9180 C.2   306  ILE306      0.2260
     60  O         -4.9030   31.3560   46.9340 O.2   306  ILE306     -0.2867
     61  CB        -2.2800   32.0870   48.8460 C.3   306  ILE306      0.0252
     62  CG1       -1.0920   31.6590   49.6970 C.3   306  ILE306      0.0019
     63  CG2       -3.3770   32.6460   49.7470 C.3   306  ILE306      0.0019
     64  CD1       -1.4070   30.5560   50.6240 C.3   306  ILE306      0.0001
     65  N         -5.5570   28.8420   45.0960 N.3   309  TYR309     -0.1227
     66  CA        -6.6880   28.3980   45.8820 C.3   309  TYR309      0.1736
     67  C         -7.8260   29.4150   45.7510 C.2   309  TYR309      0.2595
     68  O         -8.9440   29.0730   45.3850 O.2   309  TYR309     -0.2718
     69  CB        -6.2800   28.2790   47.3490 C.3   309  TYR309      0.0548
     70  CG        -7.4580   28.1030   48.2660 C.ar  309  TYR309     -0.0200
     71  CD1       -8.0450   26.8530   48.4430 C.ar  309  TYR309     -0.0009
     72  CD2       -8.0560   29.2060   48.8780 C.ar  309  TYR309     -0.0009
     73  CE1       -9.2060   26.7020   49.2000 C.ar  309  TYR309      0.0417
     74  CE2       -9.2110   29.0700   49.6300 C.ar  309  TYR309      0.0417
     75  CZ        -9.7810   27.8160   49.7850 C.ar  309  TYR309      0.1957
     76  OH       -10.9230   27.6740   50.5190 O.3   309  TYR309     -0.2866
     77  N         -7.5240   30.6700   46.0590 N.am  310  ASN310     -0.1974
     78  CA        -8.5110   31.7420   46.0040 C.3   310  ASN310      0.1688
     79  C         -9.1990   31.9380   44.6760 C.2   310  ASN310      0.2292
     80  O        -10.4240   31.9790   44.6140 O.2   310  ASN310     -0.2864
     81  CB        -7.8890   33.0820   46.4360 C.3   310  ASN310      0.1181
     82  CG        -7.8190   33.2250   47.9370 C.2   310  ASN310      0.2629
     83  OD1       -8.7300   32.8120   48.6380 O.2   310  ASN310     -0.2716
     84  ND2       -6.7480   33.8180   48.4370 N.am  310  ASN310     -0.0877
     85  N        -10.7600   27.2190   44.6680 N.3   314  MET314     -0.1230
     86  CA       -11.9850   27.5500   45.3740 C.3   314  MET314      0.1702
     87  C        -13.1220   28.0660   44.5010 C.2   314  MET314      0.2592
     88  O        -14.2850   27.7700   44.7870 O.2   314  MET314     -0.2718
     89  CB       -11.6780   28.5460   46.5010 C.3   314  MET314      0.0401
     90  CG       -12.8400   28.7960   47.4380 C.3   314  MET314      0.0596
     91  SD       -13.6620   30.3980   47.1080 S.3   314  MET314     -0.1393
     92  CE       -12.6110   31.4340   48.0890 C.3   314  MET314      0.0692
     93  N        -12.8080   28.8200   43.4430 N.am  315  GLN315     -0.1979
     94  CA       -13.8640   29.3390   42.5610 C.3   315  GLN315      0.1601
     95  C        -14.5710   28.2160   41.8510 C.2   315  GLN315      0.2287
     96  O        -15.7530   28.3090   41.5520 O.2   315  GLN315     -0.2864
     97  CB       -13.3230   30.2940   41.4850 C.3   315  GLN315      0.0394
     98  CG       -13.0980   31.7250   41.9390 C.3   315  GLN315      0.0908
     99  CD       -14.2110   32.2560   42.8460 C.2   315  GLN315      0.2608
    100  OE1      -15.4010   32.1080   42.5490 O.2   315  GLN315     -0.2717
    101  NE2      -13.8190   32.8930   43.9540 N.am  315  GLN315     -0.0878
    102  N        -15.9450   25.7820   45.1350 N.3   318  LYS318     -0.1245
    103  CA       -16.7150   26.5050   46.1550 C.3   318  LYS318      0.1561
    104  C        -17.9290   25.7380   46.6700 C.2   318  LYS318      0.2260
    105  O        -18.1210   25.5740   47.8670 O.2   318  LYS318     -0.2867
    106  CB       -17.2070   27.8390   45.5920 C.3   318  LYS318      0.0271
    107  CG       -17.2220   28.9410   46.6110 C.3   318  LYS318      0.0035
    108  CD       -18.5130   29.7280   46.5860 C.3   318  LYS318      0.0206
    109  CE       -19.6880   28.9160   47.1130 C.3   318  LYS318      0.1093
    110  NZ       -20.8830   29.7870   47.3080 N.3   318  LYS318     -0.1314
    111  N        -16.9200   22.1850   48.2320 N.3   321  ILE321     -0.1231
    112  CA       -16.3350   22.4220   49.5470 C.3   321  ILE321      0.1692
    113  C        -17.3960   22.6710   50.6290 C.2   321  ILE321      0.2592
    114  O        -17.2940   22.1480   51.7370 O.2   321  ILE321     -0.2718
    115  CB       -15.3710   23.6260   49.5150 C.3   321  ILE321      0.0266
    116  CG1      -14.2230   23.3550   48.5390 C.3   321  ILE321      0.0019
    117  CG2      -14.8460   23.9090   50.9220 C.3   321  ILE321      0.0020
    118  CD1      -13.3780   24.5730   48.2390 C.3   321  ILE321      0.0001
    119  N        -18.4200   23.4510   50.2970 N.am  322  LEU322     -0.1966
    120  CA       -19.4770   23.7720   51.2470 C.3   322  LEU322      0.1728
    121  C        -20.4150   22.6120   51.5730 C.2   322  LEU322      0.2616
    122  O        -20.9550   22.5420   52.6770 O.2   322  LEU322     -0.2715
    123  CB       -20.2740   24.9740   50.7360 C.3   322  LEU322      0.0311
    124  CG       -19.5080   26.2920   50.7130 C.3   322  LEU322      0.0022
    125  CD1      -20.3960   27.3550   50.1030 C.3   322  LEU322      0.0001
    126  CD2      -19.0980   26.6900   52.1340 C.3   322  LEU322      0.0001
    127  N        -20.6070   21.7000   50.6240 N.am  323  GLN323     -0.1977
    128  CA       -21.4670   20.5370   50.8600 C.3   323  GLN323      0.1601
    129  C        -20.9760   19.7470   52.0780 C.2   323  GLN323      0.2287
    130  O        -21.7730   19.1290   52.8000 O.2   323  GLN323     -0.2864
    131  CB       -21.4680   19.5980   49.6610 C.3   323  GLN323      0.0394
    132  CG       -22.1300   20.1030   48.4020 C.3   323  GLN323      0.0908
    133  CD       -22.3640   18.9620   47.4060 C.2   323  GLN323      0.2608
    134  OE1      -21.5780   18.0100   47.3470 O.2   323  GLN323     -0.2717
    135  NE2      -23.4400   19.0580   46.6180 N.am  323  GLN323     -0.0878
    136  N        -19.9330   20.8770   54.7690 N.3   325  ALA325     -0.1231
    137  CA       -20.3460   21.5460   55.9960 C.3   325  ALA325      0.1694
    138  C        -21.8690   21.6010   56.0460 C.2   325  ALA325      0.2593
    139  O        -22.4470   22.3450   56.8420 O.2   325  ALA325     -0.2718
    140  CB       -19.7560   22.9810   56.0460 C.3   325  ALA325      0.0304
    141  N        -22.5080   20.8050   55.1930 N.am  326  SER326     -0.1938
    142  CA       -23.9570   20.7920   55.1070 C.3   326  SER326      0.2055
    143  C        -24.6280   19.4740   55.4960 C.2   326  SER326      0.2644
    144  O        -23.9840   18.5190   55.9380 O.2   326  SER326     -0.2714
    145  CB       -24.3890   21.1730   53.6910 C.3   326  SER326      0.2130
    146  OG       -24.4530   20.0370   52.8560 O.3   326  SER326     -0.2179
    147  N        -25.9440   19.4590   55.3150 N.am  327  THR327     -0.1936
    148  CA       -26.7990   18.3220   55.6210 C.3   327  THR327      0.2028
    149  C        -26.6070   17.0970   54.7040 C.2   327  THR327      0.2642
    150  O        -26.9050   15.9650   55.0910 O.2   327  THR327     -0.2714
    151  CB       -28.2750   18.8090   55.5960 C.3   327  THR327      0.1808
    152  OG1      -28.6090   19.3100   56.8890 O.3   327  THR327     -0.2208
    153  CG2      -29.2440   17.7100   55.1910 C.3   327  THR327      0.0379
    154  N        -26.1170   17.3200   53.4900 N.am  328  ARG328     -0.1977
    155  CA       -25.9080   16.2170   52.5500 C.3   328  ARG328      0.1597
    156  C        -24.4890   16.2180   52.0130 C.2   328  ARG328      0.2287
    157  O        -24.2630   16.4150   50.8200 O.2   328  ARG328     -0.2864
    158  CB       -26.8980   16.3100   51.3870 C.3   328  ARG328      0.0334
    159  CG       -28.3420   16.2310   51.8250 C.3   328  ARG328      0.0492
    160  CD       -29.0560   17.5410   51.5560 C.3   328  ARG328      0.2205
    161  NE       -29.4700   17.6610   50.1620 N.pl3 328  ARG328     -0.0865
    162  CZ       -29.8490   18.8020   49.5900 C.cat 328  ARG328      0.5346
    163  NH1      -29.8590   19.9180   50.2980 N.pl3 328  ARG328      0.1354
    164  NH2      -30.2190   18.8270   48.3110 N.pl3 328  ARG328      0.1354
@<TRIPOS>BOND
     1    97    98    1
     2    97    94    1
     3    96    95    2
     4    95    94    1
     5    98    99    1
     6   100    99    2
     7    94    93    1
     8    99   101   am
     9    93    87   am
    10    87    88    2
    11    87    86    1
    12    80    79    2
    13    85    86    1
    14    79    78    1
    15    65    66    1
    16   102   103    1
    17    86    89    1
    18    68    67    2
    19   106   103    1
    20   106   107    1
    21    67    66    1
    22    67    77   am
    23    66    69    1
    24    78    77    1
    25    78    81    1
    26   103   104    1
    27    81    82    1
    28    89    90    1
    29   108   107    1
    30   108   109    1
    31   135   133   am
    32   104   105    2
    33    59    60    2
    34    59    58    1
    35    91    90    1
    36    91    92    1
    37   109   110    1
    38   134   133    2
    39    69    70    1
    40   133   132    1
    41    57    58    1
    42    82    84   am
    43    82    83    2
    44    58    61    1
    45   111   112    1
    46   118   116    1
    47    70    71   ar
    48    70    72   ar
    49   164   162    1
    50   132   131    1
    51    71    73   ar
    52   116   115    1
    53    61    62    1
    54    61    63    1
    55    72    74   ar
    56    73    75   ar
    57   115   112    1
    58   115   117    1
    59   112   113    1
    60   162   161    2
    61   162   163    1
    62    74    75   ar
    63   131   128    1
    64    62    64    1
    65    75    76    1
    66   125   124    1
    67   161   160    1
    68    56    54   ar
    69    56    55   ar
    70   119   113   am
    71   119   120    1
    72    54    52   ar
    73   127   128    1
    74   127   121   am
    75   113   114    2
    76   124   123    1
    77   124   126    1
    78   123   120    1
    79   157   156    2
    80   128   129    1
    81    55    53   ar
    82   120   121    1
    83    52    51   ar
    84   158   159    1
    85   158   155    1
    86   160   159    1
    87   121   122    2
    88    53    51   ar
    89    51    50    1
    90   156   155    1
    91   129   130    2
    92   155   154    1
    93     8    10   ar
    94     8     6   ar
    95     5     6    1
    96     5     2    1
    97    50    47    1
    98   146   145    1
    99    10    11   ar
   100     6     7   ar
   101     1     2    1
   102     3     2    1
   103     3     4    2
   104   154   149   am
   105   145   142    1
   106    11    12    1
   107    11     9   ar
   108    47    48    1
   109    47    46    1
   110     7     9   ar
   111    49    48    2
   112    27    26    1
   113   149   150    2
   114   149   148    1
   115   136   137    1
   116   142   141    1
   117   142   143    1
   118    18    17    1
   119    18    19    1
   120   153   151    1
   121   141   138   am
   122    28    26    1
   123    20    19    1
   124    20    21    1
   125   147   143   am
   126   147   148    1
   127    17    14    1
   128   143   144    2
   129   151   148    1
   130   151   152    1
   131    26    23    1
   132   137   138    1
   133   137   140    1
   134   138   139    2
   135    22    23    1
   136    22    15   am
   137    13    14    1
   138    14    15    1
   139    23    24    1
   140    15    16    2
   141    24    25    2
   142    24    29   am
   143    36    37    1
   144    36    35    1
   145    29    30    1
   146    34    35    1
   147    34    33    1
   148    33    30    1
   149    30    31    1
   150    38    31   am
   151    38    39    1
   152    31    32    2
   153    39    40    1
   154    39    42    1
   155    40    41    2
   156    42    43    1
   157    44    43    2
   158    43    45   am
