@<TRIPOS>MOLECULE
tmp/1n4rF00.pdb
 208 203 0 0 0
SMALL
GASTEIGER

@<TRIPOS>ATOM
      1  N        -42.9950   54.8080  120.4640 N.3    25  SER25      -0.1202
      2  CA       -42.7970   53.7660  119.4640 C.3    25  SER25       0.2020
      3  C        -43.7990   53.8750  118.3040 C.2    25  SER25       0.2618
      4  O        -43.7260   53.1180  117.3330 O.2    25  SER25      -0.2717
      5  CB       -42.9170   52.3880  120.1110 C.3    25  SER25       0.2103
      6  OG       -44.2360   52.1640  120.5820 O.3    25  SER25      -0.2182
      7  N        -44.7270   54.8210  118.4060 N.am   26  LEU26      -0.1979
      8  CA       -45.7270   55.0130  117.3670 C.3    26  LEU26       0.1596
      9  C        -45.4140   56.2360  116.5170 C.2    26  LEU26       0.2287
     10  O        -46.1430   56.5470  115.5820 O.2    26  LEU26      -0.2864
     11  CB       -47.1160   55.1740  117.9940 C.3    26  LEU26       0.0297
     12  CG       -47.6240   54.0070  118.8510 C.3    26  LEU26       0.0022
     13  CD1      -48.8850   54.4410  119.6090 C.3    26  LEU26       0.0001
     14  CD2      -47.8710   52.7840  117.9650 C.3    26  LEU26       0.0001
     15  N        -45.7050   56.1070  112.7960 N.3    29  SER29      -0.1217
     16  CA       -46.9760   55.6190  112.2960 C.3    29  SER29       0.1889
     17  C        -48.1210   56.3140  113.0240 C.2    29  SER29       0.2288
     18  O        -49.1670   55.7270  113.3020 O.2    29  SER29      -0.2866
     19  CB       -47.0650   54.0890  112.4060 C.3    29  SER29       0.2089
     20  OG       -46.7390   53.6280  113.6940 O.3    29  SER29      -0.2183
     21  N        -51.6080   56.3520  111.4230 N.3    32  THR32      -0.1218
     22  CA       -52.5480   55.2500  111.6050 C.3    32  THR32       0.1862
     23  C        -53.3070   55.4260  112.9130 C.2    32  THR32       0.2287
     24  O        -54.4320   54.9430  113.0560 O.2    32  THR32      -0.2866
     25  CB       -51.8580   53.8680  111.6150 C.3    32  THR32       0.1770
     26  OG1      -51.1450   53.6980  112.8430 O.3    32  THR32      -0.2211
     27  CG2      -50.8890   53.7480  110.4520 C.3    32  THR32       0.0375
     28  N        -57.2970   55.5580  113.3300 N.3    36  PHE36      -0.1241
     29  CA       -58.0810   54.8520  114.3350 C.3    36  PHE36       0.1605
     30  C        -59.0390   55.7830  115.0610 C.2    36  PHE36       0.2264
     31  O        -60.1660   55.4060  115.3760 O.2    36  PHE36      -0.2867
     32  CB       -57.1580   54.2010  115.3670 C.3    36  PHE36       0.0534
     33  CG       -56.3870   53.0230  114.8470 C.ar   36  PHE36      -0.0203
     34  CD1      -55.1630   52.6840  115.4090 C.ar   36  PHE36      -0.0042
     35  CD2      -56.8940   52.2280  113.8270 C.ar   36  PHE36      -0.0042
     36  CE1      -54.4520   51.5660  114.9610 C.ar   36  PHE36      -0.0003
     37  CE2      -56.1910   51.1070  113.3720 C.ar   36  PHE36      -0.0003
     38  CZ       -54.9680   50.7770  113.9410 C.ar   36  PHE36      -0.0000
     39  N        -44.7570   55.4320  102.9710 N.3   104  HIS104     -0.1241
     40  CA       -44.8950   54.1300  103.6110 C.3   104  HIS104      0.1621
     41  C        -46.2910   53.6520  103.2140 C.2   104  HIS104      0.2264
     42  O        -47.2920   54.3370  103.4780 O.2   104  HIS104     -0.2867
     43  CB       -44.7850   54.2760  105.1350 C.3   104  HIS104      0.0745
     44  CG       -44.8330   52.9760  105.8750 C.ar  104  HIS104      0.0817
     45  ND1      -45.9890   52.2400  106.0150 N.ar  104  HIS104     -0.2268
     46  CD2      -43.8600   52.2730  106.5040 C.ar  104  HIS104      0.1154
     47  CE1      -45.7280   51.1390  106.6990 C.ar  104  HIS104      0.1986
     48  NE2      -44.4440   51.1350  107.0070 N.ar  104  HIS104     -0.2212
     49  N        -48.5420   51.7140  104.3690 N.3   106  ALA106     -0.1231
     50  CA       -49.6250   51.7310  105.3430 C.3   106  ALA106      0.1694
     51  C        -50.0490   53.1590  105.6590 C.2   106  ALA106      0.2591
     52  O        -51.1650   53.4000  106.1270 O.2   106  ALA106     -0.2718
     53  CB       -49.1990   51.0180  106.6180 C.3   106  ALA106      0.0304
     54  N        -49.1570   54.1090  105.4010 N.am  107  MET107     -0.1979
     55  CA       -49.4530   55.5120  105.6670 C.3   107  MET107      0.1605
     56  C        -50.1890   56.1190  104.4780 C.2   107  MET107      0.2287
     57  O        -51.0670   56.9640  104.6400 O.2   107  MET107     -0.2864
     58  CB       -48.1580   56.2700  105.9520 C.3   107  MET107      0.0413
     59  CG       -47.3200   55.6490  107.0710 C.3   107  MET107      0.0598
     60  SD       -48.2720   55.2840  108.5700 S.3   107  MET107     -0.1393
     61  CE       -47.4580   53.7660  109.1120 C.3   107  MET107      0.0692
     62  N        -39.8400   44.1190  105.2980 N.3   152  GLU152     -0.1245
     63  CA       -40.3920   42.7810  105.2190 C.3   152  GLU152      0.1567
     64  C        -41.5640   42.8940  104.2450 C.2   152  GLU152      0.2260
     65  O        -42.0480   43.9990  103.9840 O.2   152  GLU152     -0.2867
     66  CB       -40.8920   42.3340  106.5970 C.3   152  GLU152      0.0388
     67  CG       -42.1000   43.1230  107.1170 C.3   152  GLU152      0.1160
     68  CD       -41.7360   44.4520  107.7840 C.2   152  GLU152      0.3649
     69  OE1      -40.6150   44.9580  107.5750 O.co2 152  GLU152     -0.2457
     70  OE2      -42.5860   45.0020  108.5200 O.co2 152  GLU152     -0.2457
     71  N        -50.1800   41.8790  104.9170 N.3   156  ARG156     -0.1231
     72  CA       -50.6050   43.1790  105.4470 C.3   156  ARG156      0.1694
     73  C        -50.5120   44.2570  104.3680 C.2   156  ARG156      0.2592
     74  O        -51.4270   45.0620  104.1760 O.2   156  ARG156     -0.2718
     75  CB       -49.7160   43.6140  106.6190 C.3   156  ARG156      0.0321
     76  CG       -49.8200   42.8050  107.9000 C.3   156  ARG156      0.0489
     77  CD       -48.7510   43.2860  108.8760 C.3   156  ARG156      0.2205
     78  NE       -47.4070   43.1210  108.3150 N.pl3 156  ARG156     -0.0865
     79  CZ       -46.3530   43.8740  108.6320 C.cat 156  ARG156      0.5346
     80  NH1      -46.4800   44.8580  109.5150 N.pl3 156  ARG156      0.1354
     81  NH2      -45.1710   43.6490  108.0580 N.pl3 156  ARG156      0.1354
     82  N        -49.3910   44.2630  103.6630 N.am  157  PHE157     -0.1976
     83  CA       -49.1560   45.2630  102.6430 C.3   157  PHE157      0.1639
     84  C        -49.9030   45.0070  101.3400 C.2   157  PHE157      0.2290
     85  O        -50.1210   45.9340  100.5580 O.2   157  PHE157     -0.2864
     86  CB       -47.6470   45.4000  102.4460 C.3   157  PHE157      0.0560
     87  CG       -46.9190   45.7510  103.7200 C.ar  157  PHE157     -0.0200
     88  CD1      -45.6250   45.3090  103.9510 C.ar  157  PHE157     -0.0042
     89  CD2      -47.5480   46.5130  104.7040 C.ar  157  PHE157     -0.0042
     90  CE1      -44.9650   45.6180  105.1470 C.ar  157  PHE157     -0.0003
     91  CE2      -46.8960   46.8280  105.9000 C.ar  157  PHE157     -0.0003
     92  CZ       -45.6040   46.3790  106.1220 C.ar  157  PHE157     -0.0000
     93  N        -59.2170   37.9020  121.6140 N.3   252  ASP252     -0.1239
     94  CA       -58.7680   39.2770  121.6500 C.3   252  ASP252      0.1674
     95  C        -59.8090   40.1250  120.9200 C.2   252  ASP252      0.2266
     96  O        -60.1550   39.8540  119.7700 O.2   252  ASP252     -0.2867
     97  CB       -57.4250   39.3890  120.9450 C.3   252  ASP252      0.1410
     98  CG       -56.9360   40.8140  120.8510 C.2   252  ASP252      0.3668
     99  OD1      -57.7720   41.7360  120.7040 O.co2 252  ASP252     -0.2456
    100  OD2      -55.7090   41.0140  120.9060 O.co2 252  ASP252     -0.2456
    101  N        -59.9610   42.7900  119.1310 N.3   254  CYS254     -0.1221
    102  CA       -59.7960   43.1900  117.7390 C.3   254  CYS254      0.1808
    103  C        -60.1210   42.1090  116.7100 C.2   254  CYS254      0.2601
    104  O        -60.4180   42.4250  115.5580 O.2   254  CYS254     -0.2717
    105  CB       -58.3940   43.7570  117.4970 C.3   254  CYS254      0.0970
    106  SG       -57.0790   42.5370  117.4200 S.3   254  CYS254     -0.0800
    107  N        -60.0860   40.8410  117.1030 N.am  255  TYR255     -0.1976
    108  CA       -60.4210   39.7940  116.1410 C.3   255  TYR255      0.1639
    109  C        -61.9120   39.7670  115.8250 C.2   255  TYR255      0.2290
    110  O        -62.3300   39.1710  114.8260 O.2   255  TYR255     -0.2864
    111  CB       -59.9360   38.4230  116.6210 C.3   255  TYR255      0.0560
    112  CG       -58.4370   38.3110  116.4900 C.ar  255  TYR255     -0.0198
    113  CD1      -57.8240   38.4390  115.2480 C.ar  255  TYR255     -0.0009
    114  CD2      -57.6230   38.1800  117.6160 C.ar  255  TYR255     -0.0009
    115  CE1      -56.4450   38.4520  115.1270 C.ar  255  TYR255      0.0417
    116  CE2      -56.2430   38.1900  117.5070 C.ar  255  TYR255      0.0417
    117  CZ       -55.6610   38.3310  116.2610 C.ar  255  TYR255      0.1957
    118  OH       -54.2940   38.3840  116.1550 O.3   255  TYR255     -0.2866
    119  N        -61.4170   41.6670  112.6470 N.3   258  TRP258     -0.1241
    120  CA       -60.5960   40.9190  111.6940 C.3   258  TRP258      0.1605
    121  C        -61.3300   39.6780  111.1800 C.2   258  TRP258      0.2264
    122  O        -61.5100   39.5070  109.9740 O.2   258  TRP258     -0.2867
    123  CB       -59.2790   40.4780  112.3330 C.3   258  TRP258      0.0550
    124  CG       -58.3350   41.5940  112.7460 C.ar  258  TRP258      0.0003
    125  CD1      -57.7170   41.7450  113.9680 C.ar  258  TRP258      0.0946
    126  CD2      -57.8450   42.6500  111.9270 C.ar  258  TRP258      0.0152
    127  NE1      -56.8750   42.8280  113.9500 N.ar  258  TRP258     -0.2442
    128  CE2      -56.9330   43.4060  112.7120 C.ar  258  TRP258      0.0810
    129  CE3      -58.0830   43.0380  110.6070 C.ar  258  TRP258      0.0012
    130  CZ2      -56.2570   44.5200  112.2150 C.ar  258  TRP258      0.0191
    131  CZ3      -57.4100   44.1490  110.1090 C.ar  258  TRP258      0.0001
    132  CH2      -56.5080   44.8790  110.9140 C.ar  258  TRP258      0.0015
    133  N        -57.5430   44.5470  124.8020 N.3   294  LYS294     -0.1231
    134  CA       -57.6130   43.2340  124.1680 C.3   294  LYS294      0.1693
    135  C        -58.3570   42.2450  125.0570 C.2   294  LYS294      0.2592
    136  O        -59.1330   41.4150  124.5740 O.2   294  LYS294     -0.2718
    137  CB       -56.2100   42.7120  123.8200 C.3   294  LYS294      0.0285
    138  CG       -55.3770   42.2090  124.9820 C.3   294  LYS294      0.0035
    139  CD       -53.9370   41.9180  124.5320 C.3   294  LYS294      0.0206
    140  CE       -53.8640   40.8230  123.4660 C.3   294  LYS294      0.1093
    141  NZ       -52.4830   40.6920  122.8970 N.3   294  LYS294     -0.1314
    142  N        -58.1260   42.3450  126.3610 N.am  295  TRP295     -0.1976
    143  CA       -58.8030   41.4720  127.3190 C.3   295  TRP295      0.1640
    144  C        -59.4390   42.3250  128.4050 C.2   295  TRP295      0.2290
    145  O        -59.0960   43.4970  128.5640 O.2   295  TRP295     -0.2864
    146  CB       -57.8180   40.5160  127.9830 C.3   295  TRP295      0.0576
    147  CG       -56.9520   39.7600  127.0470 C.ar  295  TRP295      0.0006
    148  CD1      -57.3390   39.1000  125.9190 C.ar  295  TRP295      0.0946
    149  CD2      -55.5450   39.5400  127.1800 C.ar  295  TRP295      0.0152
    150  NE1      -56.2590   38.4810  125.3390 N.ar  295  TRP295     -0.2442
    151  CE2      -55.1450   38.7330  126.0940 C.ar  295  TRP295      0.0810
    152  CE3      -54.5810   39.9450  128.1150 C.ar  295  TRP295      0.0012
    153  CZ2      -53.8200   38.3220  125.9170 C.ar  295  TRP295      0.0191
    154  CZ3      -53.2660   39.5360  127.9380 C.ar  295  TRP295      0.0001
    155  CH2      -52.8990   38.7330  126.8480 C.ar  295  TRP295      0.0015
    156  N        -57.7250   45.2380  131.1630 N.3   298  SER298     -0.1202
    157  CA       -56.4350   45.4170  130.5240 C.3   298  SER298      0.2020
    158  C        -56.3870   46.8770  130.0410 C.2   298  SER298      0.2618
    159  O        -57.4310   47.5000  129.8850 O.2   298  SER298     -0.2717
    160  CB       -56.3450   44.4310  129.3630 C.3   298  SER298      0.2103
    161  OG       -55.0220   44.2910  128.9080 O.3   298  SER298     -0.2182
    162  N        -55.2080   47.4450  129.8140 N.am  299  HIS299     -0.1975
    163  CA       -55.1600   48.8390  129.3730 C.3   299  HIS299      0.1656
    164  C        -55.6220   49.0300  127.9380 C.2   299  HIS299      0.2291
    165  O        -55.2030   48.3140  127.0370 O.2   299  HIS299     -0.2864
    166  CB       -53.7550   49.4290  129.5710 C.3   299  HIS299      0.0771
    167  CG       -53.4370   49.7540  131.0060 C.ar  299  HIS299      0.0820
    168  ND1      -52.1730   50.1180  131.4320 N.ar  299  HIS299     -0.2267
    169  CD2      -54.2220   49.7720  132.1130 C.ar  299  HIS299      0.1154
    170  CE1      -52.1950   50.3450  132.7360 C.ar  299  HIS299      0.1986
    171  NE2      -53.4260   50.1420  133.1730 N.ar  299  HIS299     -0.2212
    172  N        -56.2860   50.9640  124.1900 N.3   301  ASP301     -0.1239
    173  CA       -55.4730   51.6800  123.2120 C.3   301  ASP301      0.1674
    174  C        -56.3260   52.0040  121.9850 C.2   301  ASP301      0.2266
    175  O        -57.4170   51.4530  121.8140 O.2   301  ASP301     -0.2867
    176  CB       -54.2390   50.8550  122.8110 C.3   301  ASP301      0.1410
    177  CG       -54.5850   49.4500  122.3440 C.2   301  ASP301      0.3668
    178  OD1      -55.4180   49.2990  121.4220 O.co2 301  ASP301     -0.2456
    179  OD2      -54.0120   48.4900  122.8960 O.co2 301  ASP301     -0.2456
    180  N        -56.0350   51.1910  118.8210 N.3   303  LEU303     -0.1231
    181  CA       -56.3060   50.0410  117.9730 C.3   303  LEU303      0.1693
    182  C        -57.4840   49.2010  118.4490 C.2   303  LEU303      0.2592
    183  O        -58.3990   48.9180  117.6780 O.2   303  LEU303     -0.2718
    184  CB       -55.0510   49.1670  117.8390 C.3   303  LEU303      0.0284
    185  CG       -55.1310   47.9780  116.8670 C.3   303  LEU303      0.0019
    186  CD1      -53.7700   47.6990  116.2850 C.3   303  LEU303      0.0001
    187  CD2      -55.6760   46.7440  117.5750 C.3   303  LEU303      0.0001
    188  N        -57.4840   48.8010  119.7110 N.am  304  HIS304     -0.1976
    189  CA       -58.5890   47.9900  120.2010 C.3   304  HIS304      0.1656
    190  C        -59.8850   48.7670  120.3390 C.2   304  HIS304      0.2291
    191  O        -60.9740   48.2110  120.1890 O.2   304  HIS304     -0.2864
    192  CB       -58.2170   47.3320  121.5240 C.3   304  HIS304      0.0771
    193  CG       -57.1600   46.2820  121.3830 C.ar  304  HIS304      0.0820
    194  ND1      -55.8210   46.5870  121.2580 N.ar  304  HIS304     -0.2267
    195  CD2      -57.2520   44.9360  121.2690 C.ar  304  HIS304      0.1154
    196  CE1      -55.1340   45.4750  121.0730 C.ar  304  HIS304      0.1986
    197  NE2      -55.9790   44.4590  121.0740 N.ar  304  HIS304     -0.2212
    198  N        -61.2110   48.8580  116.6300 N.3   307  PHE307     -0.1241
    199  CA       -61.6820   47.5610  116.1640 C.3   307  PHE307      0.1605
    200  C        -62.7700   46.9560  117.0400 C.2   307  PHE307      0.2264
    201  O        -63.5960   46.1840  116.5490 O.2   307  PHE307     -0.2867
    202  CB       -60.5080   46.5920  115.9780 C.3   307  PHE307      0.0534
    203  CG       -59.6390   46.9270  114.7870 C.ar  307  PHE307     -0.0203
    204  CD1      -58.3050   47.2820  114.9500 C.ar  307  PHE307     -0.0042
    205  CD2      -60.1770   46.9350  113.5010 C.ar  307  PHE307     -0.0042
    206  CE1      -57.5150   47.6480  113.8490 C.ar  307  PHE307     -0.0003
    207  CE2      -59.3980   47.2990  112.3960 C.ar  307  PHE307     -0.0003
    208  CZ       -58.0610   47.6580  112.5720 C.ar  307  PHE307     -0.0000
@<TRIPOS>BOND
     1    85    84    2
     2    84    83    1
     3    86    83    1
     4    86    87    1
     5    83    82    1
     6    39    40    1
     7    41    42    2
     8    41    40    1
     9    40    43    1
    10    82    73   am
    11    87    88   ar
    12    87    89   ar
    13    88    90   ar
    14    65    64    2
    15    74    73    2
    16    64    63    1
    17    73    72    1
    18    49    50    1
    19    56    57    2
    20    56    55    1
    21    89    91   ar
    22    71    72    1
    23    43    44    1
    24    90    92   ar
    25    63    62    1
    26    63    66    1
    27    50    51    1
    28    50    53    1
    29    54    51   am
    30    54    55    1
    31    72    75    1
    32    51    52    2
    33    55    58    1
    34    44    45   ar
    35    44    46   ar
    36    91    92   ar
    37    58    59    1
    38    45    47   ar
    39    46    48   ar
    40    66    67    1
    41    75    76    1
    42    47    48   ar
    43    59    60    1
    44    67    68    1
    45    69    68   ar
    46    68    70   ar
    47    76    77    1
    48    81    79    1
    49    78    79    2
    50    78    77    1
    51    60    61    1
    52    79    80    1
    53   122   121    2
    54   131   129   ar
    55   131   132   ar
    56    27    25    1
    57   129   126   ar
    58   132   130   ar
    59   121   120    1
    60    21    22    1
    61    22    25    1
    62    22    23    1
    63    25    26    1
    64   120   123    1
    65   120   119    1
    66   126   128   ar
    67   126   124   ar
    68   130   128   ar
    69    16    19    1
    70    16    15    1
    71    16    17    1
    72   123   124    1
    73   207   208   ar
    74   207   205   ar
    75    19    20    1
    76   208   206   ar
    77   128   127   ar
    78   124   125   ar
    79    23    24    2
    80    17    18    2
    81    28    29    1
    82    37    35   ar
    83    37    38   ar
    84   205   203   ar
    85    35    33   ar
    86   206   204   ar
    87    38    36   ar
    88   127   125   ar
    89    29    30    1
    90    29    32    1
    91   203   204   ar
    92   203   202    1
    93   110   109    2
    94    33    32    1
    95    33    34   ar
    96    36    34   ar
    97    30    31    2
    98   115   113   ar
    99   115   117   ar
   100   113   112   ar
   101   104   103    2
   102    10     9    2
   103   109   108    1
   104   202   199    1
   105   108   111    1
   106   108   107    1
   107   118   117    1
   108   199   198    1
   109   199   200    1
   110   117   116   ar
   111   186   185    1
   112   112   111    1
   113   112   114   ar
   114     9     8    1
   115   201   200    2
   116   103   107   am
   117   103   102    1
   118   185   187    1
   119   185   184    1
   120     4     3    2
   121     8    11    1
   122     8     7    1
   123   106   105    1
   124   105   102    1
   125   116   114   ar
   126   183   182    2
   127   102   101    1
   128   184   181    1
   129    14    12    1
   130   181   182    1
   131   181   180    1
   132    11    12    1
   133     3     7   am
   134     3     2    1
   135   182   188   am
   136    12    13    1
   137     2     5    1
   138     2     1    1
   139   188   189    1
   140    96    95    2
   141     5     6    1
   142   191   190    2
   143   189   190    1
   144   189   192    1
   145    99    98   ar
   146    98   100   ar
   147    98    97    1
   148    95    94    1
   149    97    94    1
   150   196   197   ar
   151   196   194   ar
   152   197   195   ar
   153   194   193   ar
   154   195   193   ar
   155   193   192    1
   156   178   177   ar
   157    93    94    1
   158   175   174    2
   159   174   173    1
   160   177   176    1
   161   177   179   ar
   162   176   173    1
   163   141   140    1
   164   173   172    1
   165   140   139    1
   166   137   134    1
   167   137   138    1
   168   134   133    1
   169   134   135    1
   170   139   138    1
   171   136   135    2
   172   135   142   am
   173   150   148   ar
   174   150   151   ar
   175   153   151   ar
   176   153   155   ar
   177   148   147   ar
   178   151   149   ar
   179   142   143    1
   180   155   154   ar
   181   165   164    2
   182   147   149   ar
   183   147   146    1
   184   149   152   ar
   185   143   146    1
   186   143   144    1
   187   154   152   ar
   188   164   163    1
   189   144   145    2
   190   161   160    1
   191   160   157    1
   192   163   166    1
   193   163   162    1
   194   166   167    1
   195   162   158   am
   196   159   158    2
   197   158   157    1
   198   157   156    1
   199   167   168   ar
   200   167   169   ar
   201   168   170   ar
   202   169   171   ar
   203   170   171   ar
