@<TRIPOS>MOLECULE
tmp/1n4rF02.pdb
 208 202 0 0 0
SMALL
GASTEIGER

@<TRIPOS>ATOM
      1  N        -51.6080   56.3520  111.4230 N.3    32  THR32      -0.1218
      2  CA       -52.5480   55.2500  111.6050 C.3    32  THR32       0.1862
      3  C        -53.3070   55.4260  112.9130 C.2    32  THR32       0.2287
      4  O        -54.4320   54.9430  113.0560 O.2    32  THR32      -0.2866
      5  CB       -51.8580   53.8680  111.6150 C.3    32  THR32       0.1770
      6  OG1      -51.1450   53.6980  112.8430 O.3    32  THR32      -0.2211
      7  CG2      -50.8890   53.7480  110.4520 C.3    32  THR32       0.0375
      8  N        -55.9500   57.7530  112.0490 N.3    35  PHE35      -0.1227
      9  CA       -56.9670   56.9570  111.3670 C.3    35  PHE35       0.1736
     10  C        -57.8860   56.2620  112.3700 C.2    35  PHE35       0.2595
     11  O        -59.1080   56.3540  112.2700 O.2    35  PHE35      -0.2718
     12  CB       -56.3140   55.8930  110.4700 C.3    35  PHE35       0.0547
     13  CG       -57.2840   54.8610  109.9470 C.ar   35  PHE35      -0.0202
     14  CD1      -58.2550   55.2050  109.0120 C.ar   35  PHE35      -0.0042
     15  CD2      -57.2660   53.5570  110.4360 C.ar   35  PHE35      -0.0042
     16  CE1      -59.1950   54.2660  108.5770 C.ar   35  PHE35      -0.0003
     17  CE2      -58.2030   52.6120  110.0080 C.ar   35  PHE35      -0.0003
     18  CZ       -59.1670   52.9680  109.0810 C.ar   35  PHE35      -0.0000
     19  N        -57.2970   55.5580  113.3300 N.am   36  PHE36      -0.1976
     20  CA       -58.0810   54.8520  114.3350 C.3    36  PHE36       0.1639
     21  C        -59.0390   55.7830  115.0610 C.2    36  PHE36       0.2290
     22  O        -60.1660   55.4060  115.3760 O.2    36  PHE36      -0.2864
     23  CB       -57.1580   54.2010  115.3670 C.3    36  PHE36       0.0560
     24  CG       -56.3870   53.0230  114.8470 C.ar   36  PHE36      -0.0200
     25  CD1      -55.1630   52.6840  115.4090 C.ar   36  PHE36      -0.0042
     26  CD2      -56.8940   52.2280  113.8270 C.ar   36  PHE36      -0.0042
     27  CE1      -54.4520   51.5660  114.9610 C.ar   36  PHE36      -0.0003
     28  CE2      -56.1910   51.1070  113.3720 C.ar   36  PHE36      -0.0003
     29  CZ       -54.9680   50.7770  113.9410 C.ar   36  PHE36      -0.0000
     30  N        -48.5420   51.7140  104.3690 N.3   106  ALA106     -0.1245
     31  CA       -49.6250   51.7310  105.3430 C.3   106  ALA106      0.1562
     32  C        -50.0490   53.1590  105.6590 C.2   106  ALA106      0.2260
     33  O        -51.1650   53.4000  106.1270 O.2   106  ALA106     -0.2867
     34  CB       -49.1990   51.0180  106.6180 C.3   106  ALA106      0.0290
     35  N        -52.1340   54.4590  102.6680 N.3   109  TYR109     -0.1227
     36  CA       -53.4640   53.8970  102.8390 C.3   109  TYR109      0.1736
     37  C        -54.2720   54.6670  103.8890 C.2   109  TYR109      0.2596
     38  O        -55.3290   55.2170  103.5760 O.2   109  TYR109     -0.2718
     39  CB       -53.3620   52.4030  103.2070 C.3   109  TYR109      0.0548
     40  CG       -54.5520   51.8490  103.9740 C.ar  109  TYR109     -0.0200
     41  CD1      -55.8580   52.0030  103.5020 C.ar  109  TYR109     -0.0009
     42  CD2      -54.3670   51.2030  105.1940 C.ar  109  TYR109     -0.0009
     43  CE1      -56.9430   51.5320  104.2390 C.ar  109  TYR109      0.0417
     44  CE2      -55.4400   50.7280  105.9310 C.ar  109  TYR109      0.0417
     45  CZ       -56.7230   50.8960  105.4550 C.ar  109  TYR109      0.1957
     46  OH       -57.7830   50.4400  106.2100 O.3   109  TYR109     -0.2866
     47  N        -53.7860   54.7150  105.1260 N.am  110  THR110     -0.1953
     48  CA       -54.5040   55.4280  106.1810 C.3   110  THR110      0.1897
     49  C        -54.6130   56.9250  105.9040 C.2   110  THR110      0.2313
     50  O        -55.5440   57.5800  106.3690 O.2   110  THR110     -0.2863
     51  CB       -53.8400   55.2280  107.5490 C.3   110  THR110      0.1794
     52  OG1      -52.4240   55.3850  107.4130 O.3   110  THR110     -0.2208
     53  CG2      -54.1620   53.8460  108.0990 C.3   110  THR110      0.0378
     54  N        -50.1800   41.8790  104.9170 N.3   156  ARG156     -0.1231
     55  CA       -50.6050   43.1790  105.4470 C.3   156  ARG156      0.1694
     56  C        -50.5120   44.2570  104.3680 C.2   156  ARG156      0.2592
     57  O        -51.4270   45.0620  104.1760 O.2   156  ARG156     -0.2718
     58  CB       -49.7160   43.6140  106.6190 C.3   156  ARG156      0.0321
     59  CG       -49.8200   42.8050  107.9000 C.3   156  ARG156      0.0489
     60  CD       -48.7510   43.2860  108.8760 C.3   156  ARG156      0.2205
     61  NE       -47.4070   43.1210  108.3150 N.pl3 156  ARG156     -0.0865
     62  CZ       -46.3530   43.8740  108.6320 C.cat 156  ARG156      0.5346
     63  NH1      -46.4800   44.8580  109.5150 N.pl3 156  ARG156      0.1354
     64  NH2      -45.1710   43.6490  108.0580 N.pl3 156  ARG156      0.1354
     65  N        -49.3910   44.2630  103.6630 N.am  157  PHE157     -0.1976
     66  CA       -49.1560   45.2630  102.6430 C.3   157  PHE157      0.1639
     67  C        -49.9030   45.0070  101.3400 C.2   157  PHE157      0.2290
     68  O        -50.1210   45.9340  100.5580 O.2   157  PHE157     -0.2864
     69  CB       -47.6470   45.4000  102.4460 C.3   157  PHE157      0.0560
     70  CG       -46.9190   45.7510  103.7200 C.ar  157  PHE157     -0.0200
     71  CD1      -45.6250   45.3090  103.9510 C.ar  157  PHE157     -0.0042
     72  CD2      -47.5480   46.5130  104.7040 C.ar  157  PHE157     -0.0042
     73  CE1      -44.9650   45.6180  105.1470 C.ar  157  PHE157     -0.0003
     74  CE2      -46.8960   46.8280  105.9000 C.ar  157  PHE157     -0.0003
     75  CZ       -45.6040   46.3790  106.1220 C.ar  157  PHE157     -0.0000
     76  N        -52.9440   44.0500  101.3480 N.3   159  TYR159     -0.1227
     77  CA       -54.2190   44.6790  101.6710 C.3   159  TYR159      0.1736
     78  C        -54.1290   46.1990  101.5230 C.2   159  TYR159      0.2595
     79  O        -55.0680   46.8410  101.0440 O.2   159  TYR159     -0.2718
     80  CB       -54.6320   44.3370  103.0990 C.3   159  TYR159      0.0548
     81  CG       -55.8610   45.0840  103.5560 C.ar  159  TYR159     -0.0200
     82  CD1      -57.1110   44.8090  103.0050 C.ar  159  TYR159     -0.0009
     83  CD2      -55.7750   46.0740  104.5370 C.ar  159  TYR159     -0.0009
     84  CE1      -58.2470   45.4980  103.4200 C.ar  159  TYR159      0.0417
     85  CE2      -56.9030   46.7700  104.9600 C.ar  159  TYR159      0.0417
     86  CZ       -58.1340   46.4770  104.4000 C.ar  159  TYR159      0.1957
     87  OH       -59.2490   47.1600  104.8240 O.3   159  TYR159     -0.2866
     88  N        -53.0050   46.7750  101.9450 N.am  160  CYS160     -0.1970
     89  CA       -52.8160   48.2150  101.8420 C.3   160  CYS160      0.1712
     90  C        -52.8340   48.6260  100.3760 C.2   160  CYS160      0.2296
     91  O        -53.4850   49.6040  100.0060 O.2   160  CYS160     -0.2864
     92  CB       -51.4860   48.6350  102.4730 C.3   160  CYS160      0.0983
     93  SG       -51.4310   48.5780  104.2870 S.3   160  CYS160     -0.0798
     94  N        -49.6840   34.8420  106.5610 N.3   195  GLN195     -0.1245
     95  CA       -49.0100   36.0520  106.1000 C.3   195  GLN195      0.1566
     96  C        -48.2750   35.7920  104.7860 C.2   195  GLN195      0.2260
     97  O        -48.0240   36.7110  104.0090 O.2   195  GLN195     -0.2867
     98  CB       -48.0060   36.5360  107.1400 C.3   195  GLN195      0.0367
     99  CG       -48.6210   37.1550  108.3690 C.3   195  GLN195      0.0905
    100  CD       -49.4330   38.4010  108.0520 C.2   195  GLN195      0.2608
    101  OE1      -49.2260   39.0530  107.0270 O.2   195  GLN195     -0.2717
    102  NE2      -50.3520   38.7490  108.9460 N.am  195  GLN195     -0.0878
    103  N        -53.6460   32.7670  109.9240 N.3   202  HIS202     -0.1241
    104  CA       -53.9730   33.6940  110.9990 C.3   202  HIS202      0.1621
    105  C        -55.1800   34.5810  110.6590 C.2   202  HIS202      0.2264
    106  O        -55.4370   34.8850  109.4920 O.2   202  HIS202     -0.2867
    107  CB       -52.7090   34.5270  111.2460 C.3   202  HIS202      0.0745
    108  CG       -52.8090   35.4920  112.3800 C.ar  202  HIS202      0.0817
    109  ND1      -53.3450   36.7530  112.2400 N.ar  202  HIS202     -0.2268
    110  CD2      -52.4200   35.3870  113.6720 C.ar  202  HIS202      0.1154
    111  CE1      -53.2830   37.3850  113.3990 C.ar  202  HIS202      0.1986
    112  NE2      -52.7240   36.5780  114.2850 N.ar  202  HIS202     -0.2212
    113  N        -55.7040   37.7780  111.0770 N.3   204  GLY204     -0.1225
    114  CA       -55.3710   39.0400  110.4460 C.3   204  GLY204      0.1811
    115  C        -55.0620   38.9070  108.9650 C.2   204  GLY204      0.2280
    116  O        -55.5720   39.6740  108.1480 O.2   204  GLY204     -0.2866
    117  N        -56.9400   40.2230  105.5400 N.3   208  CYS208     -0.1235
    118  CA       -56.2450   40.9550  104.4970 C.3   208  CYS208      0.1677
    119  C        -56.4020   40.2940  103.1350 C.2   208  CYS208      0.2270
    120  O        -56.6620   40.9730  102.1410 O.2   208  CYS208     -0.2867
    121  CB       -54.7660   41.0930  104.8370 C.3   208  CYS208      0.0956
    122  SG       -54.4680   42.1510  106.2550 S.3   208  CYS208     -0.0801
    123  N        -59.2170   37.9020  121.6140 N.3   252  ASP252     -0.1239
    124  CA       -58.7680   39.2770  121.6500 C.3   252  ASP252      0.1674
    125  C        -59.8090   40.1250  120.9200 C.2   252  ASP252      0.2266
    126  O        -60.1550   39.8540  119.7700 O.2   252  ASP252     -0.2867
    127  CB       -57.4250   39.3890  120.9450 C.3   252  ASP252      0.1410
    128  CG       -56.9360   40.8140  120.8510 C.2   252  ASP252      0.3668
    129  OD1      -57.7720   41.7360  120.7040 O.co2 252  ASP252     -0.2456
    130  OD2      -55.7090   41.0140  120.9060 O.co2 252  ASP252     -0.2456
    131  N        -59.9610   42.7900  119.1310 N.3   254  CYS254     -0.1221
    132  CA       -59.7960   43.1900  117.7390 C.3   254  CYS254      0.1808
    133  C        -60.1210   42.1090  116.7100 C.2   254  CYS254      0.2601
    134  O        -60.4180   42.4250  115.5580 O.2   254  CYS254     -0.2717
    135  CB       -58.3940   43.7570  117.4970 C.3   254  CYS254      0.0970
    136  SG       -57.0790   42.5370  117.4200 S.3   254  CYS254     -0.0800
    137  N        -60.0860   40.8410  117.1030 N.am  255  TYR255     -0.1976
    138  CA       -60.4210   39.7940  116.1410 C.3   255  TYR255      0.1639
    139  C        -61.9120   39.7670  115.8250 C.2   255  TYR255      0.2290
    140  O        -62.3300   39.1710  114.8260 O.2   255  TYR255     -0.2864
    141  CB       -59.9360   38.4230  116.6210 C.3   255  TYR255      0.0560
    142  CG       -58.4370   38.3110  116.4900 C.ar  255  TYR255     -0.0198
    143  CD1      -57.8240   38.4390  115.2480 C.ar  255  TYR255     -0.0009
    144  CD2      -57.6230   38.1800  117.6160 C.ar  255  TYR255     -0.0009
    145  CE1      -56.4450   38.4520  115.1270 C.ar  255  TYR255      0.0417
    146  CE2      -56.2430   38.1900  117.5070 C.ar  255  TYR255      0.0417
    147  CZ       -55.6610   38.3310  116.2610 C.ar  255  TYR255      0.1957
    148  OH       -54.2940   38.3840  116.1550 O.3   255  TYR255     -0.2866
    149  N        -61.4170   41.6670  112.6470 N.3   258  TRP258     -0.1241
    150  CA       -60.5960   40.9190  111.6940 C.3   258  TRP258      0.1605
    151  C        -61.3300   39.6780  111.1800 C.2   258  TRP258      0.2264
    152  O        -61.5100   39.5070  109.9740 O.2   258  TRP258     -0.2867
    153  CB       -59.2790   40.4780  112.3330 C.3   258  TRP258      0.0550
    154  CG       -58.3350   41.5940  112.7460 C.ar  258  TRP258      0.0003
    155  CD1      -57.7170   41.7450  113.9680 C.ar  258  TRP258      0.0946
    156  CD2      -57.8450   42.6500  111.9270 C.ar  258  TRP258      0.0152
    157  NE1      -56.8750   42.8280  113.9500 N.ar  258  TRP258     -0.2442
    158  CE2      -56.9330   43.4060  112.7120 C.ar  258  TRP258      0.0810
    159  CE3      -58.0830   43.0380  110.6070 C.ar  258  TRP258      0.0012
    160  CZ2      -56.2570   44.5200  112.2150 C.ar  258  TRP258      0.0191
    161  CZ3      -57.4100   44.1490  110.1090 C.ar  258  TRP258      0.0001
    162  CH2      -56.5080   44.8790  110.9140 C.ar  258  TRP258      0.0015
    163  N        -57.5430   44.5470  124.8020 N.3   294  LYS294     -0.1245
    164  CA       -57.6130   43.2340  124.1680 C.3   294  LYS294      0.1561
    165  C        -58.3570   42.2450  125.0570 C.2   294  LYS294      0.2260
    166  O        -59.1330   41.4150  124.5740 O.2   294  LYS294     -0.2867
    167  CB       -56.2100   42.7120  123.8200 C.3   294  LYS294      0.0271
    168  CG       -55.3770   42.2090  124.9820 C.3   294  LYS294      0.0035
    169  CD       -53.9370   41.9180  124.5320 C.3   294  LYS294      0.0206
    170  CE       -53.8640   40.8230  123.4660 C.3   294  LYS294      0.1093
    171  NZ       -52.4830   40.6920  122.8970 N.3   294  LYS294     -0.1314
    172  N        -56.0350   51.1910  118.8210 N.3   303  LEU303     -0.1231
    173  CA       -56.3060   50.0410  117.9730 C.3   303  LEU303      0.1693
    174  C        -57.4840   49.2010  118.4490 C.2   303  LEU303      0.2592
    175  O        -58.3990   48.9180  117.6780 O.2   303  LEU303     -0.2718
    176  CB       -55.0510   49.1670  117.8390 C.3   303  LEU303      0.0284
    177  CG       -55.1310   47.9780  116.8670 C.3   303  LEU303      0.0019
    178  CD1      -53.7700   47.6990  116.2850 C.3   303  LEU303      0.0001
    179  CD2      -55.6760   46.7440  117.5750 C.3   303  LEU303      0.0001
    180  N        -57.4840   48.8010  119.7110 N.am  304  HIS304     -0.1976
    181  CA       -58.5890   47.9900  120.2010 C.3   304  HIS304      0.1656
    182  C        -59.8850   48.7670  120.3390 C.2   304  HIS304      0.2291
    183  O        -60.9740   48.2110  120.1890 O.2   304  HIS304     -0.2864
    184  CB       -58.2170   47.3320  121.5240 C.3   304  HIS304      0.0771
    185  CG       -57.1600   46.2820  121.3830 C.ar  304  HIS304      0.0820
    186  ND1      -55.8210   46.5870  121.2580 N.ar  304  HIS304     -0.2267
    187  CD2      -57.2520   44.9360  121.2690 C.ar  304  HIS304      0.1154
    188  CE1      -55.1340   45.4750  121.0730 C.ar  304  HIS304      0.1986
    189  NE2      -55.9790   44.4590  121.0740 N.ar  304  HIS304     -0.2212
    190  N        -61.2110   48.8580  116.6300 N.3   307  PHE307     -0.1241
    191  CA       -61.6820   47.5610  116.1640 C.3   307  PHE307      0.1605
    192  C        -62.7700   46.9560  117.0400 C.2   307  PHE307      0.2264
    193  O        -63.5960   46.1840  116.5490 O.2   307  PHE307     -0.2867
    194  CB       -60.5080   46.5920  115.9780 C.3   307  PHE307      0.0534
    195  CG       -59.6390   46.9270  114.7870 C.ar  307  PHE307     -0.0203
    196  CD1      -58.3050   47.2820  114.9500 C.ar  307  PHE307     -0.0042
    197  CD2      -60.1770   46.9350  113.5010 C.ar  307  PHE307     -0.0042
    198  CE1      -57.5150   47.6480  113.8490 C.ar  307  PHE307     -0.0003
    199  CE2      -59.3980   47.2990  112.3960 C.ar  307  PHE307     -0.0003
    200  CZ       -58.0610   47.6580  112.5720 C.ar  307  PHE307     -0.0000
    201  N        -62.9660   48.9820  105.4340 N.3   328  ASN328     -0.1240
    202  CA       -62.6850   49.3930  106.8020 C.3   328  ASN328      0.1653
    203  C        -62.8980   50.8900  107.0750 C.2   328  ASN328      0.2266
    204  O        -61.9980   51.6010  107.5280 O.2   328  ASN328     -0.2867
    205  CB       -61.2580   48.9590  107.1670 C.3   328  ASN328      0.1155
    206  CG       -60.9420   49.1510  108.6390 C.2   328  ASN328      0.2627
    207  OD1      -61.8120   48.9870  109.5010 O.2   328  ASN328     -0.2716
    208  ND2      -59.6830   49.4840  108.9390 N.am  328  ASN328     -0.0877
@<TRIPOS>BOND
     1    91    90    2
     2    90    89    1
     3    68    67    2
     4    79    78    2
     5    67    66    1
     6    76    77    1
     7    78    77    1
     8    78    88   am
     9    77    80    1
    10    89    88    1
    11    89    92    1
    12   120   119    2
    13    69    66    1
    14    69    70    1
    15    92    93    1
    16    66    65    1
    17    35    36    1
    18    36    39    1
    19    36    37    1
    20    82    84   ar
    21    82    81   ar
    22    80    81    1
    23   119   118    1
    24    39    40    1
    25    84    86   ar
    26    41    40   ar
    27    41    43   ar
    28    81    83   ar
    29    38    37    2
    30    65    56   am
    31    70    71   ar
    32    70    72   ar
    33    37    47   am
    34    71    73   ar
    35    40    42   ar
    36    97    96    2
    37    57    56    2
    38    43    45   ar
    39    56    55    1
    40    30    31    1
    41    86    87    1
    42    86    85   ar
    43   118   121    1
    44   118   117    1
    45    83    85   ar
    46    72    74   ar
    47    96    95    1
    48   121   122    1
    49    54    55    1
    50    47    48    1
    51    73    75   ar
    52    42    44   ar
    53    31    32    1
    54    31    34    1
    55   201   202    1
    56    55    58    1
    57    45    44   ar
    58    45    46    1
    59    32    33    2
    60    74    75   ar
    61    49    48    1
    62    49    50    2
    63    95    94    1
    64    95    98    1
    65    48    51    1
    66    58    59    1
    67   202   203    1
    68   202   205    1
    69   101   100    2
    70   203   204    2
    71    98    99    1
    72   205   206    1
    73    52    51    1
    74    51    53    1
    75    59    60    1
    76   100    99    1
    77   100   102   am
    78    64    62    1
    79   116   115    2
    80    61    62    2
    81    61    60    1
    82    16    14   ar
    83    16    18   ar
    84    62    63    1
    85   206   208   am
    86   206   207    2
    87   115   114    1
    88    14    13   ar
    89    18    17   ar
    90   106   105    2
    91   103   104    1
    92    13    15   ar
    93    13    12    1
    94   152   151    2
    95    17    15   ar
    96   161   159   ar
    97   161   162   ar
    98   114   113    1
    99     7     5    1
   100    12     9    1
   101   159   156   ar
   102   105   104    1
   103   162   160   ar
   104   104   107    1
   105   151   150    1
   106   107   108    1
   107     9     8    1
   108     9    10    1
   109     1     2    1
   110     2     5    1
   111     2     3    1
   112     5     6    1
   113   150   153    1
   114   150   149    1
   115   156   158   ar
   116   156   154   ar
   117   160   158   ar
   118   109   108   ar
   119   109   111   ar
   120    11    10    2
   121   153   154    1
   122    10    19   am
   123   108   110   ar
   124   199   200   ar
   125   199   197   ar
   126   200   198   ar
   127   158   157   ar
   128   154   155   ar
   129     3     4    2
   130    19    20    1
   131    28    26   ar
   132    28    29   ar
   133   111   112   ar
   134   197   195   ar
   135   110   112   ar
   136    26    24   ar
   137   198   196   ar
   138    29    27   ar
   139   157   155   ar
   140    20    21    1
   141    20    23    1
   142   195   196   ar
   143   195   194    1
   144   140   139    2
   145    24    23    1
   146    24    25   ar
   147    27    25   ar
   148    21    22    2
   149   145   143   ar
   150   145   147   ar
   151   143   142   ar
   152   134   133    2
   153   139   138    1
   154   194   191    1
   155   138   141    1
   156   138   137    1
   157   148   147    1
   158   191   190    1
   159   191   192    1
   160   147   146   ar
   161   178   177    1
   162   142   141    1
   163   142   144   ar
   164   193   192    2
   165   133   137   am
   166   133   132    1
   167   177   179    1
   168   177   176    1
   169   136   135    1
   170   135   132    1
   171   146   144   ar
   172   175   174    2
   173   132   131    1
   174   176   173    1
   175   173   174    1
   176   173   172    1
   177   174   180   am
   178   180   181    1
   179   126   125    2
   180   183   182    2
   181   181   182    1
   182   181   184    1
   183   129   128   ar
   184   128   130   ar
   185   128   127    1
   186   125   124    1
   187   127   124    1
   188   188   189   ar
   189   188   186   ar
   190   189   187   ar
   191   186   185   ar
   192   187   185   ar
   193   185   184    1
   194   123   124    1
   195   171   170    1
   196   170   169    1
   197   167   164    1
   198   167   168    1
   199   164   163    1
   200   164   165    1
   201   169   168    1
   202   166   165    2
