@<TRIPOS>MOLECULE
tmp/1n4sL01.pdb
 227 220 0 0 0
SMALL
GASTEIGER

@<TRIPOS>ATOM
      1  N        -27.7820   49.3630    7.9980 N.3    32  THR32      -0.1218
      2  CA       -27.3320   49.4060    9.3880 C.3    32  THR32       0.1862
      3  C        -28.5310   49.5940   10.3190 C.2    32  THR32       0.2287
      4  O        -28.4730   49.2230   11.4890 O.2    32  THR32      -0.2866
      5  CB       -26.2720   50.5090    9.6640 C.3    32  THR32       0.1770
      6  OG1      -26.9110   51.7820    9.7410 O.3    32  THR32      -0.2211
      7  CG2      -25.2250   50.5380    8.5670 C.3    32  THR32       0.0375
      8  N        -29.6910   46.2300   10.8390 N.3    35  PHE35      -0.1227
      9  CA       -28.7940   45.6010   11.7970 C.3    35  PHE35       0.1736
     10  C        -29.1930   45.9250   13.2400 C.2    35  PHE35       0.2595
     11  O        -29.2750   45.0350   14.0820 O.2    35  PHE35      -0.2718
     12  CB       -27.3600   46.0690   11.5620 C.3    35  PHE35       0.0547
     13  CG       -26.4250   45.6770   12.6510 C.ar   35  PHE35      -0.0202
     14  CD1      -25.9710   44.3670   12.7540 C.ar   35  PHE35      -0.0042
     15  CD2      -26.0450   46.6030   13.6220 C.ar   35  PHE35      -0.0042
     16  CE1      -25.1560   43.9830   13.8100 C.ar   35  PHE35      -0.0003
     17  CE2      -25.2270   46.2240   14.6860 C.ar   35  PHE35      -0.0003
     18  CZ       -24.7850   44.9150   14.7780 C.ar   35  PHE35      -0.0000
     19  N        -29.4310   47.1990   13.5280 N.am   36  PHE36      -0.1976
     20  CA       -29.8040   47.5920   14.8780 C.3    36  PHE36       0.1639
     21  C        -31.0750   46.8730   15.3110 C.2    36  PHE36       0.2290
     22  O        -31.1780   46.3850   16.4430 O.2    36  PHE36      -0.2864
     23  CB       -30.0210   49.1090   14.9550 C.3    36  PHE36       0.0560
     24  CG       -28.7510   49.9200   14.8460 C.ar   36  PHE36      -0.0200
     25  CD1      -28.7590   51.1700   14.2250 C.ar   36  PHE36      -0.0042
     26  CD2      -27.5510   49.4460   15.3670 C.ar   36  PHE36      -0.0042
     27  CE1      -27.5890   51.9310   14.1230 C.ar   36  PHE36      -0.0003
     28  CE2      -26.3750   50.2030   15.2710 C.ar   36  PHE36      -0.0003
     29  CZ       -26.3960   51.4430   14.6490 C.ar   36  PHE36      -0.0000
     30  N        -19.1000   50.1060    5.9940 N.3   106  ALA106     -0.1245
     31  CA       -19.9950   49.9180    7.1330 C.3   106  ALA106      0.1562
     32  C        -21.1970   49.0470    6.7450 C.2   106  ALA106      0.2260
     33  O        -21.8130   48.4010    7.5970 O.2   106  ALA106     -0.2867
     34  CB       -20.4770   51.2770    7.6600 C.3   106  ALA106      0.0290
     35  N        -19.9770   45.4180    6.4820 N.3   109  TYR109     -0.1227
     36  CA       -19.8950   44.9400    7.8540 C.3   109  TYR109      0.1736
     37  C        -21.2780   44.5730    8.4210 C.2   109  TYR109      0.2596
     38  O        -21.5030   43.4340    8.8230 O.2   109  TYR109     -0.2718
     39  CB       -19.2070   46.0030    8.7340 C.3   109  TYR109      0.0548
     40  CG       -19.5320   45.9020   10.2130 C.ar  109  TYR109     -0.0200
     41  CD1      -19.3590   44.7030   10.9080 C.ar  109  TYR109     -0.0009
     42  CD2      -20.0580   46.9940   10.9070 C.ar  109  TYR109     -0.0009
     43  CE1      -19.7120   44.5890   12.2530 C.ar  109  TYR109      0.0417
     44  CE2      -20.4140   46.8940   12.2550 C.ar  109  TYR109      0.0417
     45  CZ       -20.2440   45.6860   12.9200 C.ar  109  TYR109      0.1957
     46  OH       -20.6520   45.5620   14.2310 O.3   109  TYR109     -0.2866
     47  N        -22.2030   45.5260    8.4600 N.am  110  THR110     -0.1953
     48  CA       -23.5280   45.2380    8.9900 C.3   110  THR110      0.1897
     49  C        -24.2630   44.1950    8.1540 C.2   110  THR110      0.2313
     50  O        -25.0710   43.4260    8.6860 O.2   110  THR110     -0.2863
     51  CB       -24.4060   46.5150    9.1080 C.3   110  THR110      0.1794
     52  OG1      -24.3380   47.2720    7.8980 O.3   110  THR110     -0.2208
     53  CG2      -23.9360   47.3730   10.2580 C.3   110  THR110      0.0378
     54  N        -13.4260   54.5310   12.8150 N.3   156  ARG156     -0.1231
     55  CA       -14.6880   53.8200   12.6130 C.3   156  ARG156      0.1694
     56  C        -14.5510   52.7420   11.5460 C.2   156  ARG156      0.2592
     57  O        -15.0190   51.6120   11.7150 O.2   156  ARG156     -0.2718
     58  CB       -15.7930   54.7820   12.1710 C.3   156  ARG156      0.0321
     59  CG       -16.2320   55.8100   13.1890 C.3   156  ARG156      0.0489
     60  CD       -17.2080   56.7740   12.5340 C.3   156  ARG156      0.2205
     61  NE       -16.5840   57.4630   11.4020 N.pl3 156  ARG156     -0.0865
     62  CZ       -17.2510   57.9650   10.3660 C.cat 156  ARG156      0.5346
     63  NH1      -18.5710   57.8580   10.3040 N.pl3 156  ARG156      0.1354
     64  NH2      -16.6020   58.5700    9.3850 N.pl3 156  ARG156      0.1354
     65  N        -13.9050   53.0960   10.4420 N.am  157  PHE157     -0.1976
     66  CA       -13.7610   52.1630    9.3460 C.3   157  PHE157      0.1639
     67  C        -12.6850   51.1150    9.5700 C.2   157  PHE157      0.2290
     68  O        -12.7110   50.0620    8.9360 O.2   157  PHE157     -0.2864
     69  CB       -13.5520   52.9570    8.0590 C.3   157  PHE157      0.0560
     70  CG       -14.6720   53.9300    7.7790 C.ar  157  PHE157     -0.0200
     71  CD1      -14.4260   55.1430    7.1490 C.ar  157  PHE157     -0.0042
     72  CD2      -15.9760   53.6390    8.1810 C.ar  157  PHE157     -0.0042
     73  CE1      -15.4620   56.0570    6.9300 C.ar  157  PHE157     -0.0003
     74  CE2      -17.0180   54.5420    7.9660 C.ar  157  PHE157     -0.0003
     75  CZ       -16.7600   55.7550    7.3420 C.ar  157  PHE157     -0.0000
     76  N        -12.4030   49.6530   12.3780 N.3   159  TYR159     -0.1227
     77  CA       -13.1840   48.6760   13.1170 C.3   159  TYR159      0.1736
     78  C        -14.0230   47.8240   12.1620 C.2   159  TYR159      0.2595
     79  O        -14.1280   46.6070   12.3410 O.2   159  TYR159     -0.2718
     80  CB       -14.1040   49.3760   14.1170 C.3   159  TYR159      0.0548
     81  CG       -15.0450   48.4230   14.8060 C.ar  159  TYR159     -0.0200
     82  CD1      -14.5620   47.4520   15.6910 C.ar  159  TYR159     -0.0009
     83  CD2      -16.4220   48.4640   14.5520 C.ar  159  TYR159     -0.0009
     84  CE1      -15.4210   46.5540   16.3060 C.ar  159  TYR159      0.0417
     85  CE2      -17.2940   47.5640   15.1580 C.ar  159  TYR159      0.0417
     86  CZ       -16.7890   46.6170   16.0330 C.ar  159  TYR159      0.1957
     87  OH       -17.6520   45.7380   16.6440 O.3   159  TYR159     -0.2866
     88  N        -14.6240   48.4700   11.1590 N.am  160  CYS160     -0.1970
     89  CA       -15.4430   47.7670   10.1700 C.3   160  CYS160      0.1712
     90  C        -14.5890   46.7580    9.4270 C.2   160  CYS160      0.2296
     91  O        -14.9860   45.6150    9.2430 O.2   160  CYS160     -0.2864
     92  CB       -16.0420   48.7440    9.1550 C.3   160  CYS160      0.0983
     93  SG       -17.3180   49.8320    9.8070 S.3   160  CYS160     -0.0798
     94  N        -10.0640   59.6930   16.7630 N.3   195  GLN195     -0.1245
     95  CA       -10.4260   59.2420   15.4230 C.3   195  GLN195      0.1566
     96  C         -9.1780   59.0970   14.5550 C.2   195  GLN195      0.2260
     97  O         -9.1420   58.3010   13.6180 O.2   195  GLN195     -0.2867
     98  CB       -11.3910   60.2340   14.7890 C.3   195  GLN195      0.0367
     99  CG       -12.7870   60.1100   15.3220 C.3   195  GLN195      0.0905
    100  CD       -13.4490   58.8450   14.8300 C.2   195  GLN195      0.2608
    101  OE1      -14.1560   58.8520   13.8300 O.2   195  GLN195     -0.2717
    102  NE2      -13.2050   57.7460   15.5200 N.am  195  GLN195     -0.0878
    103  N        -11.8560   59.9630   22.0550 N.3   202  HIS202     -0.1241
    104  CA       -13.3000   59.8080   22.1640 C.3   202  HIS202      0.1621
    105  C        -13.6900   58.3700   22.5130 C.2   202  HIS202      0.2264
    106  O        -13.0120   57.4110   22.1300 O.2   202  HIS202     -0.2867
    107  CB       -13.9050   60.2290   20.8190 C.3   202  HIS202      0.0745
    108  CG       -15.3830   60.4360   20.8460 C.ar  202  HIS202      0.0817
    109  ND1      -16.2830   59.4010   20.7120 N.ar  202  HIS202     -0.2268
    110  CD2      -16.1200   61.5610   21.0120 C.ar  202  HIS202      0.1154
    111  CE1      -17.5120   59.8800   20.7990 C.ar  202  HIS202      0.1986
    112  NE2      -17.4400   61.1870   20.9830 N.ar  202  HIS202     -0.2212
    113  N        -16.0770   56.5370   21.3870 N.3   204  GLY204     -0.1210
    114  CA       -16.3710   55.7480   20.2030 C.3   204  GLY204      0.1956
    115  C        -15.1250   55.2330   19.5050 C.2   204  GLY204      0.2612
    116  O        -15.0310   54.0450   19.1780 O.2   204  GLY204     -0.2717
    117  N        -14.1490   56.1070   19.2770 N.am  205  SER205     -0.1952
    118  CA       -12.9380   55.6730   18.6070 C.3   205  SER205      0.1924
    119  C        -12.0760   54.7830   19.4880 C.2   205  SER205      0.2314
    120  O        -11.3460   53.9230   18.9870 O.2   205  SER205     -0.2863
    121  CB       -12.1330   56.8730   18.0920 C.3   205  SER205      0.2116
    122  OG       -12.1880   57.9670   18.9730 O.3   205  SER205     -0.2180
    123  N        -13.4920   51.4720   18.9750 N.3   208  CYS208     -0.1235
    124  CA       -13.1070   50.9610   17.6720 C.3   208  CYS208      0.1677
    125  C        -11.6720   50.4650   17.6430 C.2   208  CYS208      0.2270
    126  O        -11.3890   49.4040   17.0750 O.2   208  CYS208     -0.2867
    127  CB       -13.3350   52.0240   16.5920 C.3   208  CYS208      0.0956
    128  SG       -15.1120   52.3480   16.2480 S.3   208  CYS208     -0.0801
    129  N        -18.9950   60.5710   26.1270 N.3   245  GLY245     -0.1210
    130  CA       -18.0180   60.2090   25.1120 C.3   245  GLY245      0.1956
    131  C        -16.6390   60.8250   25.2580 C.2   245  GLY245      0.2611
    132  O        -15.6620   60.3090   24.7100 O.2   245  GLY245     -0.2717
    133  N        -16.5540   61.9310   25.9890 N.am  246  ARG246     -0.1979
    134  CA       -15.2870   62.6190   26.2050 C.3   246  ARG246      0.1597
    135  C        -15.4180   63.5470   27.3920 C.2   246  ARG246      0.2287
    136  O        -16.5140   64.0010   27.7190 O.2   246  ARG246     -0.2864
    137  CB       -14.8620   63.4040   24.9520 C.3   246  ARG246      0.0334
    138  CG       -16.0110   63.8870   24.1030 C.3   246  ARG246      0.0492
    139  CD       -15.5450   64.6730   22.8790 C.3   246  ARG246      0.2205
    140  NE       -16.7010   64.9770   22.0390 N.pl3 246  ARG246     -0.0865
    141  CZ       -16.7860   65.9900   21.1880 C.cat 246  ARG246      0.5346
    142  NH1      -15.7780   66.8380   21.0350 N.pl3 246  ARG246      0.1354
    143  NH2      -17.9040   66.1520   20.4970 N.pl3 246  ARG246      0.1354
    144  N        -18.3240   66.4420   28.7120 N.3   249  LYS249     -0.1231
    145  CA       -19.4850   66.4040   27.8160 C.3   249  LYS249      0.1678
    146  C        -20.5960   65.6330   28.5470 C.2   249  LYS249      0.2434
    147  O        -20.3250   64.8000   29.4210 O.2   249  LYS249     -0.2733
    148  CB       -19.1450   65.6880   26.5060 C.3   249  LYS249      0.0284
    149  CG       -18.1890   66.4470   25.5860 C.3   249  LYS249      0.0035
    150  CD       -18.9210   67.4070   24.6750 C.3   249  LYS249      0.0206
    151  CE       -19.7060   66.6540   23.6280 C.3   249  LYS249      0.1093
    152  NZ       -20.4130   67.5400   22.6740 N.3   249  LYS249     -0.1314
    153  N        -21.8610   65.9060   28.2130 N.am  250  PRO250     -0.2729
    154  CA       -22.9530   65.1910   28.8900 C.3   250  PRO250      0.1401
    155  C        -23.0290   63.7040   28.5440 C.2   250  PRO250      0.2269
    156  O        -22.6460   63.2990   27.4450 O.2   250  PRO250     -0.2865
    157  CB       -24.2040   65.9710   28.4640 C.3   250  PRO250      0.0296
    158  CG       -23.8070   66.6230   27.1850 C.3   250  PRO250      0.0237
    159  CD       -22.3760   67.0210   27.3990 C.3   250  PRO250      0.0939
    160  N        -24.5040   60.0110   27.5510 N.3   252  ASP252     -0.1239
    161  CA       -25.3750   59.5660   26.4780 C.3   252  ASP252      0.1674
    162  C        -25.4370   58.0420   26.5690 C.2   252  ASP252      0.2266
    163  O        -24.4070   57.3620   26.6300 O.2   252  ASP252     -0.2867
    164  CB       -24.7840   60.0190   25.1250 C.3   252  ASP252      0.1410
    165  CG       -25.4460   59.3490   23.9150 C.2   252  ASP252      0.3668
    166  OD1      -26.1830   58.3440   24.0640 O.co2 252  ASP252     -0.2456
    167  OD2      -25.2070   59.8250   22.7900 O.co2 252  ASP252     -0.2456
    168  N        -25.7340   55.5510   24.5590 N.3   254  CYS254     -0.1221
    169  CA       -24.9150   54.6890   23.7120 C.3   254  CYS254      0.1808
    170  C        -23.5030   54.4580   24.2350 C.2   254  CYS254      0.2601
    171  O        -22.8640   53.4600   23.8930 O.2   254  CYS254     -0.2717
    172  CB       -24.8740   55.2130   22.2640 C.3   254  CYS254      0.0970
    173  SG       -23.9250   56.7480   21.9530 S.3   254  CYS254     -0.0800
    174  N        -22.9970   55.3630   25.0660 N.am  255  TYR255     -0.1976
    175  CA       -21.6460   55.1610   25.5790 C.3   255  TYR255      0.1639
    176  C        -21.6060   54.0400   26.6080 C.2   255  TYR255      0.2290
    177  O        -20.5380   53.5110   26.9130 O.2   255  TYR255     -0.2864
    178  CB       -21.0720   56.4680   26.1370 C.3   255  TYR255      0.0560
    179  CG       -20.8150   57.4550   25.0270 C.ar  255  TYR255     -0.0198
    180  CD1      -20.0090   57.1020   23.9490 C.ar  255  TYR255     -0.0009
    181  CD2      -21.4690   58.6860   24.9890 C.ar  255  TYR255     -0.0009
    182  CE1      -19.8720   57.9360   22.8500 C.ar  255  TYR255      0.0417
    183  CE2      -21.3420   59.5280   23.8970 C.ar  255  TYR255      0.0417
    184  CZ       -20.5480   59.1450   22.8270 C.ar  255  TYR255      0.1957
    185  OH       -20.4640   59.9410   21.7130 O.3   255  TYR255     -0.2866
    186  N        -20.3170   51.6670   24.0690 N.3   258  TRP258     -0.1241
    187  CA       -19.0020   52.0210   23.5250 C.3   258  TRP258      0.1605
    188  C        -17.9010   51.9610   24.5810 C.2   258  TRP258      0.2264
    189  O        -16.8780   51.2920   24.3920 O.2   258  TRP258     -0.2867
    190  CB       -19.0000   53.4310   22.9080 C.3   258  TRP258      0.0550
    191  CG       -19.9190   53.6330   21.7370 C.ar  258  TRP258      0.0003
    192  CD1      -20.9130   54.5760   21.6260 C.ar  258  TRP258      0.0946
    193  CD2      -19.9110   52.9180   20.5030 C.ar  258  TRP258      0.0152
    194  NE1      -21.5150   54.4880   20.4010 N.ar  258  TRP258     -0.2442
    195  CE2      -20.9230   53.4790   19.6880 C.ar  258  TRP258      0.0810
    196  CE3      -19.1490   51.8580   20.0030 C.ar  258  TRP258      0.0012
    197  CZ2      -21.1920   53.0130   18.3920 C.ar  258  TRP258      0.0191
    198  CZ3      -19.4170   51.3910   18.7110 C.ar  258  TRP258      0.0001
    199  CH2      -20.4310   51.9720   17.9210 C.ar  258  TRP258      0.0015
    200  N        -30.9030   59.1230   23.6810 N.3   294  LYS294     -0.1245
    201  CA       -29.5790   59.4210   24.1940 C.3   294  LYS294      0.1561
    202  C        -29.7150   60.0050   25.6030 C.2   294  LYS294      0.2260
    203  O        -28.9270   59.6960   26.4920 O.2   294  LYS294     -0.2867
    204  CB       -28.8630   60.4010   23.2620 C.3   294  LYS294      0.0271
    205  CG       -29.4610   61.7920   23.2480 C.3   294  LYS294      0.0035
    206  CD       -29.0810   62.5750   22.0000 C.3   294  LYS294      0.0206
    207  CE       -27.5900   62.7880   21.8960 C.3   294  LYS294      0.1093
    208  NZ       -27.2620   63.5280   20.6420 N.3   294  LYS294     -0.1314
    209  N        -27.9170   50.0780   21.4200 N.3   307  PHE307     -0.1241
    210  CA       -26.7950   50.2100   22.3300 C.3   307  PHE307      0.1605
    211  C        -27.2250   50.2900   23.7850 C.2   307  PHE307      0.2264
    212  O        -26.4820   49.8820   24.6690 O.2   307  PHE307     -0.2867
    213  CB       -25.9050   51.3920   21.9230 C.3   307  PHE307      0.0534
    214  CG       -25.1180   51.1280   20.6670 C.ar  307  PHE307     -0.0203
    215  CD1      -25.2730   51.9280   19.5380 C.ar  307  PHE307     -0.0042
    216  CD2      -24.2720   50.0280   20.5880 C.ar  307  PHE307     -0.0042
    217  CE1      -24.6000   51.6320   18.3440 C.ar  307  PHE307     -0.0003
    218  CE2      -23.5930   49.7220   19.3980 C.ar  307  PHE307     -0.0003
    219  CZ       -23.7610   50.5310   18.2730 C.ar  307  PHE307     -0.0000
    220  N        -19.7110   43.0070   18.6830 N.3   328  ASN328     -0.1240
    221  CA       -20.9670   43.7290   18.7840 C.3   328  ASN328      0.1653
    222  C        -22.2020   42.9490   18.3010 C.2   328  ASN328      0.2266
    223  O        -23.0650   43.4940   17.6190 O.2   328  ASN328     -0.2867
    224  CB       -20.8100   45.0560   18.0380 C.3   328  ASN328      0.1155
    225  CG       -21.9940   45.9770   18.2120 C.2   328  ASN328      0.2627
    226  OD1      -22.5920   46.0610   19.2910 O.2   328  ASN328     -0.2716
    227  ND2      -22.3310   46.6980   17.1420 N.am  328  ASN328     -0.0877
@<TRIPOS>BOND
     1    30    31    1
     2    35    36    1
     3    32    31    1
     4    32    33    2
     5    73    71   ar
     6    73    75   ar
     7    31    34    1
     8    71    70   ar
     9    75    74   ar
    10    70    69    1
    11    70    72   ar
    12    36    37    1
    13    36    39    1
    14    52    51    1
    15    74    72   ar
    16     1     2    1
    17    69    66    1
    18    49    50    2
    19    49    48    1
    20    37    47   am
    21    37    38    2
    22    47    48    1
    23     7     5    1
    24    39    40    1
    25    68    67    2
    26    48    51    1
    27    51    53    1
    28    92    93    1
    29    92    89    1
    30    91    90    2
    31    66    67    1
    32    66    65    1
    33    64    62    1
    34     2     5    1
    35     2     3    1
    36    90    89    1
    37     5     6    1
    38    89    88    1
    39    40    42   ar
    40    40    41   ar
    41    63    62    1
    42     3     4    2
    43    62    61    2
    44    65    56   am
    45     8     9    1
    46    42    44   ar
    47    41    43   ar
    48    88    78   am
    49    61    60    1
    50    56    57    2
    51    56    55    1
    52    12     9    1
    53    12    13    1
    54     9    10    1
    55    78    79    2
    56    78    77    1
    57    58    55    1
    58    58    59    1
    59    43    45   ar
    60    44    45   ar
    61    76    77    1
    62    60    59    1
    63    55    54    1
    64    13    14   ar
    65    13    15   ar
    66    14    16   ar
    67    45    46    1
    68    77    80    1
    69    10    19   am
    70    10    11    2
    71    19    20    1
    72    97    96    2
    73    15    17   ar
    74    16    18   ar
    75   101   100    2
    76    80    81    1
    77    27    25   ar
    78    27    29   ar
    79    25    24   ar
    80    83    81   ar
    81    83    85   ar
    82    96    95    1
    83    29    28   ar
    84    17    18   ar
    85    98    99    1
    86    98    95    1
    87    81    82   ar
    88   100    99    1
    89   100   102   am
    90    24    23    1
    91    24    26   ar
    92    20    23    1
    93    20    21    1
    94    85    86   ar
    95    28    26   ar
    96    21    22    2
    97    95    94    1
    98    82    84   ar
    99    86    84   ar
   100    86    87    1
   101   128   127    1
   102   127   124    1
   103   126   125    2
   104   227   225   am
   105   223   222    2
   106   125   124    1
   107   124   123    1
   108   199   197   ar
   109   199   198   ar
   110   224   225    1
   111   224   221    1
   112   121   118    1
   113   121   122    1
   114   225   226    2
   115   219   217   ar
   116   219   218   ar
   117   222   221    1
   118   217   215   ar
   119   197   195   ar
   120   118   117    1
   121   118   119    1
   122   220   221    1
   123   198   196   ar
   124   120   119    2
   125   116   115    2
   126   117   115   am
   127   218   216   ar
   128   115   114    1
   129   215   214   ar
   130   195   194   ar
   131   195   193   ar
   132   196   193   ar
   133   114   113    1
   134   194   192   ar
   135   143   141    1
   136   193   191   ar
   137   216   214   ar
   138   208   207    1
   139   214   213    1
   140   109   111   ar
   141   109   108   ar
   142   111   112   ar
   143   107   108    1
   144   107   104    1
   145   108   110   ar
   146   112   110   ar
   147   142   141    1
   148   141   140    2
   149   209   210    1
   150   192   191   ar
   151   185   184    1
   152   191   190    1
   153   207   206    1
   154   213   210    1
   155   173   172    1
   156   206   205    1
   157   140   139    1
   158   103   104    1
   159   106   105    2
   160   104   105    1
   161   172   169    1
   162   210   211    1
   163   152   151    1
   164   167   165   ar
   165   184   182   ar
   166   184   183   ar
   167   182   180   ar
   168   139   138    1
   169   190   187    1
   170   205   204    1
   171   204   201    1
   172   187   186    1
   173   187   188    1
   174   151   150    1
   175   200   201    1
   176   169   170    1
   177   169   168    1
   178   211   212    2
   179   171   170    2
   180   183   181   ar
   181   165   166   ar
   182   165   164    1
   183   180   179   ar
   184   138   137    1
   185   201   202    1
   186   170   174   am
   187   189   188    2
   188   150   149    1
   189   132   131    2
   190   137   134    1
   191   181   179   ar
   192   179   178    1
   193   174   175    1
   194   130   131    1
   195   130   129    1
   196   164   161    1
   197   131   133   am
   198   175   178    1
   199   175   176    1
   200   149   148    1
   201   202   203    2
   202   133   134    1
   203   134   135    1
   204   161   162    1
   205   161   160    1
   206   148   145    1
   207   162   163    2
   208   176   177    2
   209   158   159    1
   210   158   157    1
   211   135   136    2
   212   159   153    1
   213   156   155    2
   214   145   146    1
   215   145   144    1
   216   153   146   am
   217   153   154    1
   218   157   154    1
   219   155   154    1
   220   146   147    2
