@<TRIPOS>MOLECULE
tmp/1n4sL02.pdb
 146 141 0 0 0
SMALL
GASTEIGER

@<TRIPOS>ATOM
      1  N        -40.9400   47.9960   19.1280 N.3    11  PHE11      -0.1241
      2  CA       -40.1900   49.1190   18.5970 C.3    11  PHE11       0.1605
      3  C        -39.2790   48.6540   17.4560 C.2    11  PHE11       0.2264
      4  O        -39.2950   49.2230   16.3710 O.2    11  PHE11      -0.2867
      5  CB       -39.3590   49.7550   19.7100 C.3    11  PHE11       0.0534
      6  CG       -38.4660   50.8670   19.2380 C.ar   11  PHE11      -0.0203
      7  CD1      -38.9320   52.1760   19.1950 C.ar   11  PHE11      -0.0042
      8  CD2      -37.1680   50.5990   18.7970 C.ar   11  PHE11      -0.0042
      9  CE1      -38.1180   53.2040   18.7140 C.ar   11  PHE11      -0.0003
     10  CE2      -36.3480   51.6170   18.3150 C.ar   11  PHE11      -0.0003
     11  CZ       -36.8210   52.9200   18.2730 C.ar   11  PHE11      -0.0000
     12  N        -41.1060   47.6330   14.4050 N.3    14  ARG14      -0.1231
     13  CA       -41.5510   48.8230   13.7130 C.3    14  ARG14       0.1694
     14  C        -40.4270   49.4260   12.8430 C.2    14  ARG14       0.2592
     15  O        -40.7040   49.9570   11.7660 O.2    14  ARG14      -0.2718
     16  CB       -42.0450   49.8250   14.7550 C.3    14  ARG14       0.0321
     17  CG       -42.8710   50.9420   14.2120 C.3    14  ARG14       0.0489
     18  CD       -43.4060   51.8160   15.3330 C.3    14  ARG14       0.2205
     19  NE       -43.9100   53.0760   14.7980 N.pl3  14  ARG14      -0.0865
     20  CZ       -44.2600   54.1250   15.5340 C.cat  14  ARG14       0.5346
     21  NH1      -44.1720   54.0830   16.8550 N.pl3  14  ARG14       0.1354
     22  NH2      -44.6870   55.2290   14.9390 N.pl3  14  ARG14       0.1354
     23  N        -39.1710   49.3300   13.2930 N.am   15  CYS15      -0.1970
     24  CA       -38.0370   49.8580   12.5300 C.3    15  CYS15       0.1712
     25  C        -37.8170   49.0910   11.2310 C.2    15  CYS15       0.2296
     26  O        -37.3510   49.6690   10.2500 O.2    15  CYS15      -0.2864
     27  CB       -36.7320   49.7820   13.3270 C.3    15  CYS15       0.0983
     28  SG       -36.6840   50.7130   14.8630 S.3    15  CYS15      -0.0798
     29  N        -40.9280   53.6920    7.3390 N.3    19  LEU19      -0.1245
     30  CA       -40.6330   54.9220    8.0490 C.3    19  LEU19       0.1561
     31  C        -41.1470   56.1420    7.2920 C.2    19  LEU19       0.2260
     32  O        -41.1990   56.1410    6.0630 O.2    19  LEU19      -0.2867
     33  CB       -39.1230   55.0560    8.2510 C.3    19  LEU19       0.0270
     34  CG       -38.3720   53.8130    8.7270 C.3    19  LEU19       0.0019
     35  CD1      -36.8920   54.1270    8.7890 C.3    19  LEU19       0.0001
     36  CD2      -38.8900   53.3690   10.0860 C.3    19  LEU19       0.0001
     37  N        -39.5540   61.8340    7.0220 N.3    22  ARG22      -0.1231
     38  CA       -38.6010   62.6090    7.8000 C.3    22  ARG22       0.1694
     39  C        -37.3090   61.8370    8.0530 C.2    22  ARG22       0.2592
     40  O        -36.3090   62.4230    8.4470 O.2    22  ARG22      -0.2718
     41  CB       -39.2190   63.0980    9.1240 C.3    22  ARG22       0.0321
     42  CG       -39.5930   62.0530   10.1630 C.3    22  ARG22       0.0489
     43  CD       -39.9310   62.7670   11.4750 C.3    22  ARG22       0.2205
     44  NE       -40.2920   61.8680   12.5720 N.pl3  22  ARG22      -0.0865
     45  CZ       -41.4710   61.2570   12.7050 C.cat  22  ARG22       0.5346
     46  NH1      -42.4330   61.4390   11.8010 N.pl3  22  ARG22       0.1354
     47  NH2      -41.6910   60.4670   13.7580 N.pl3  22  ARG22       0.1354
     48  N        -37.3240   60.5320    7.7990 N.am   23  TYR23      -0.1976
     49  CA       -36.1370   59.7030    7.9950 C.3    23  TYR23       0.1639
     50  C        -35.4190   59.4320    6.6770 C.2    23  TYR23       0.2290
     51  O        -34.6340   58.4880    6.5670 O.2    23  TYR23      -0.2864
     52  CB       -36.5130   58.3730    8.6640 C.3    23  TYR23       0.0560
     53  CG       -37.1200   58.5500   10.0370 C.ar   23  TYR23      -0.0198
     54  CD1      -38.5010   58.5840   10.2100 C.ar   23  TYR23      -0.0009
     55  CD2      -36.3130   58.7440   11.1570 C.ar   23  TYR23      -0.0009
     56  CE1      -39.0650   58.8140   11.4670 C.ar   23  TYR23       0.0417
     57  CE2      -36.8620   58.9740   12.4150 C.ar   23  TYR23       0.0417
     58  CZ       -38.2360   59.0100   12.5660 C.ar   23  TYR23       0.1957
     59  OH       -38.7810   59.2500   13.8100 O.3    23  TYR23      -0.2866
     60  N        -31.6610   58.6220    6.0430 N.3    26  LEU26      -0.1245
     61  CA       -31.1570   57.3210    6.4540 C.3    26  LEU26       0.1561
     62  C        -31.1210   56.3640    5.2750 C.2    26  LEU26       0.2260
     63  O        -30.5880   55.2600    5.3790 O.2    26  LEU26      -0.2867
     64  CB       -32.0440   56.7330    7.5530 C.3    26  LEU26       0.0270
     65  CG       -32.1050   57.5030    8.8760 C.3    26  LEU26       0.0019
     66  CD1      -33.0860   56.8240    9.8080 C.3    26  LEU26       0.0001
     67  CD2      -30.7220   57.5600    9.5060 C.3    26  LEU26       0.0001
     68  N        -27.7820   49.3630    7.9980 N.3    32  THR32      -0.1203
     69  CA       -27.3320   49.4060    9.3880 C.3    32  THR32       0.1994
     70  C        -28.5310   49.5940   10.3190 C.2    32  THR32       0.2617
     71  O        -28.4730   49.2230   11.4890 O.2    32  THR32      -0.2717
     72  CB       -26.2720   50.5090    9.6640 C.3    32  THR32       0.1784
     73  OG1      -26.9110   51.7820    9.7410 O.3    32  THR32      -0.2211
     74  CG2      -25.2250   50.5380    8.5670 C.3    32  THR32       0.0376
     75  N        -29.6170   50.1750    9.8110 N.am   33  ILE33      -0.1979
     76  CA       -30.8250   50.3190   10.6260 C.3    33  ILE33       0.1595
     77  C        -31.3850   48.9010   10.8150 C.2    33  ILE33       0.2287
     78  O        -31.8440   48.5360   11.8980 O.2    33  ILE33      -0.2864
     79  CB       -31.9180   51.1560    9.9320 C.3    33  ILE33       0.0276
     80  CG1      -31.4280   52.5810    9.6920 C.3    33  ILE33       0.0022
     81  CG2      -33.1770   51.1680   10.7910 C.3    33  ILE33       0.0022
     82  CD1      -31.0230   53.3010   10.9530 C.3    33  ILE33       0.0001
     83  N        -29.4310   47.1990   13.5280 N.3    36  PHE36      -0.1241
     84  CA       -29.8040   47.5920   14.8780 C.3    36  PHE36       0.1605
     85  C        -31.0750   46.8730   15.3110 C.2    36  PHE36       0.2264
     86  O        -31.1780   46.3850   16.4430 O.2    36  PHE36      -0.2867
     87  CB       -30.0210   49.1090   14.9550 C.3    36  PHE36       0.0534
     88  CG       -28.7510   49.9200   14.8460 C.ar   36  PHE36      -0.0203
     89  CD1      -28.7590   51.1700   14.2250 C.ar   36  PHE36      -0.0042
     90  CD2      -27.5510   49.4460   15.3670 C.ar   36  PHE36      -0.0042
     91  CE1      -27.5890   51.9310   14.1230 C.ar   36  PHE36      -0.0003
     92  CE2      -26.3750   50.2030   15.2710 C.ar   36  PHE36      -0.0003
     93  CZ       -26.3960   51.4430   14.6490 C.ar   36  PHE36      -0.0000
     94  N        -38.1360   54.9830   26.4090 N.3   286  ASP286     -0.1239
     95  CA       -39.4020   55.6210   26.0510 C.3   286  ASP286      0.1674
     96  C        -40.4800   54.6000   26.3980 C.2   286  ASP286      0.2266
     97  O        -40.6430   53.5870   25.7090 O.2   286  ASP286     -0.2867
     98  CB       -39.4750   55.9570   24.5630 C.3   286  ASP286      0.1410
     99  CG       -40.6480   56.8700   24.2410 C.2   286  ASP286      0.3668
    100  OD1      -41.8030   56.5080   24.5630 O.co2 286  ASP286     -0.2456
    101  OD2      -40.4180   57.9580   23.6730 O.co2 286  ASP286     -0.2456
    102  N        -43.4350   54.5370   23.2190 N.3   289  VAL289     -0.1245
    103  CA       -43.1200   53.9290   21.9300 C.3   289  VAL289      0.1561
    104  C        -42.0440   52.8570   21.9810 C.2   289  VAL289      0.2260
    105  O        -41.8480   52.1260   21.0100 O.2   289  VAL289     -0.2867
    106  CB       -42.7090   55.0010   20.8690 C.3   289  VAL289      0.0252
    107  CG1      -43.3890   56.3150   21.1680 C.3   289  VAL289      0.0019
    108  CG2      -41.2160   55.1650   20.8070 C.3   289  VAL289      0.0019
    109  N        -36.2590   61.9080   22.1180 N.3   299  HIS299     -0.1227
    110  CA       -36.8490   60.9470   21.1920 C.3   299  HIS299      0.1737
    111  C        -35.9580   59.7350   20.9490 C.2   299  HIS299      0.2438
    112  O        -34.7580   59.8630   20.7170 O.2   299  HIS299     -0.2733
    113  CB       -37.1870   61.6280   19.8640 C.3   299  HIS299      0.0758
    114  CG       -38.3840   62.5310   19.9330 C.ar  299  HIS299      0.0818
    115  ND1      -38.6700   63.4660   18.9590 N.ar  299  HIS299     -0.2268
    116  CD2      -39.3820   62.6220   20.8450 C.ar  299  HIS299      0.1154
    117  CE1      -39.7930   64.0930   19.2670 C.ar  299  HIS299      0.1986
    118  NE2      -40.2460   63.6000   20.4070 N.ar  299  HIS299     -0.2212
    119  N        -36.5440   58.5310   21.0050 N.am  300  PRO300     -0.2718
    120  CA       -35.8010   57.2910   20.7930 C.3   300  PRO300      0.1535
    121  C        -35.4620   57.0320   19.3330 C.2   300  PRO300      0.2599
    122  O        -36.1230   57.5410   18.4270 O.2   300  PRO300     -0.2715
    123  CB       -36.7470   56.2370   21.3480 C.3   300  PRO300      0.0310
    124  CG       -38.0700   56.7850   20.9680 C.3   300  PRO300      0.0237
    125  CD       -37.9440   58.2380   21.3550 C.3   300  PRO300      0.0939
    126  N        -34.4180   56.2430   19.1170 N.am  301  ASP301     -0.1958
    127  CA       -34.0050   55.8820   17.7730 C.3   301  ASP301      0.1840
    128  C        -33.4180   54.4800   17.8290 C.2   301  ASP301      0.2622
    129  O        -33.0570   53.9930   18.9010 O.2   301  ASP301     -0.2715
    130  CB       -32.9750   56.8830   17.2230 C.3   301  ASP301      0.1450
    131  CG       -31.7250   56.9670   18.0710 C.2   301  ASP301      0.3671
    132  OD1      -30.9290   56.0080   18.0650 O.co2 301  ASP301     -0.2456
    133  OD2      -31.5320   57.9930   18.7550 O.co2 301  ASP301     -0.2456
    134  N        -33.3240   53.8360   16.6750 N.am  302  ALA302     -0.1963
    135  CA       -32.7990   52.4840   16.5900 C.3   302  ALA302      0.1728
    136  C        -31.3990   52.3360   17.1710 C.2   302  ALA302      0.2616
    137  O        -31.1120   51.3490   17.8510 O.2   302  ALA302     -0.2715
    138  CB       -32.8180   52.0130   15.1400 C.3   302  ALA302      0.0334
    139  N        -30.5240   53.3000   16.9070 N.am  303  LEU303     -0.1977
    140  CA       -29.1570   53.2210   17.4160 C.3   303  LEU303      0.1596
    141  C        -29.0840   53.2150   18.9460 C.2   303  LEU303      0.2287
    142  O        -28.4110   52.3730   19.5420 O.2   303  LEU303     -0.2864
    143  CB       -28.3150   54.3720   16.8580 C.3   303  LEU303      0.0297
    144  CG       -26.8230   54.3830   17.2470 C.3   303  LEU303      0.0022
    145  CD1      -26.0040   55.0160   16.1340 C.3   303  LEU303      0.0001
    146  CD2      -26.6270   55.1410   18.5620 C.3   303  LEU303      0.0001
@<TRIPOS>BOND
     1    62    63    2
     2    62    61    1
     3    60    61    1
     4    32    31    2
     5    61    64    1
     6    51    50    2
     7    50    49    1
     8    37    38    1
     9    31    30    1
    10    29    30    1
    11    64    65    1
    12    48    49    1
    13    48    39   am
    14    38    39    1
    15    38    41    1
    16    49    52    1
    17    68    69    1
    18    30    33    1
    19    39    40    2
    20    33    34    1
    21    74    72    1
    22    52    53    1
    23    34    35    1
    24    34    36    1
    25    65    67    1
    26    65    66    1
    27    41    42    1
    28    69    72    1
    29    69    70    1
    30    72    73    1
    31    80    79    1
    32    80    82    1
    33    75    70   am
    34    75    76    1
    35    79    76    1
    36    79    81    1
    37    53    54   ar
    38    53    55   ar
    39    42    43    1
    40    54    56   ar
    41    26    25    2
    42    70    71    2
    43    76    77    1
    44    77    78    2
    45    55    57   ar
    46    25    24    1
    47    56    58   ar
    48    43    44    1
    49    15    14    2
    50    46    45    1
    51    57    58   ar
    52    24    23    1
    53    24    27    1
    54    58    59    1
    55    44    45    2
    56    45    47    1
    57    14    23   am
    58    14    13    1
    59    27    28    1
    60    83    84    1
    61    13    12    1
    62    13    16    1
    63    91    89   ar
    64    91    93   ar
    65    17    16    1
    66    17    18    1
    67    89    88   ar
    68    93    92   ar
    69    19    18    1
    70    19    20    2
    71    88    87    1
    72    88    90   ar
    73    84    87    1
    74    84    85    1
    75    22    20    1
    76   138   135    1
    77    92    90   ar
    78    85    86    2
    79    20    21    1
    80   145   144    1
    81     4     3    2
    82   135   134    1
    83   135   136    1
    84   134   128   am
    85   143   144    1
    86   143   140    1
    87   139   136   am
    88   139   140    1
    89   136   137    2
    90   130   127    1
    91   130   131    1
    92   144   146    1
    93   140   141    1
    94     3     2    1
    95   127   128    1
    96   127   126    1
    97   128   129    2
    98   132   131   ar
    99   131   133   ar
   100    11    10   ar
   101    11     9   ar
   102    10     8   ar
   103   122   121    2
   104     2     1    1
   105     2     5    1
   106     9     7   ar
   107     8     6   ar
   108   141   142    2
   109   115   117   ar
   110   115   114   ar
   111   126   121   am
   112     7     6   ar
   113     6     5    1
   114   117   118   ar
   115   121   120    1
   116   113   114    1
   117   113   110    1
   118   114   116   ar
   119   118   116   ar
   120   112   111    2
   121   120   119    1
   122   120   123    1
   123   108   106    1
   124   106   107    1
   125   106   103    1
   126   111   119   am
   127   111   110    1
   128   124   123    1
   129   124   125    1
   130   119   125    1
   131   105   104    2
   132   110   109    1
   133   103   104    1
   134   103   102    1
   135   101    99   ar
   136    99    98    1
   137    99   100   ar
   138    98    95    1
   139    97    96    2
   140    95    96    1
   141    95    94    1
