@<TRIPOS>MOLECULE
tmp/1n4sL00.pdb
 183 177 0 0 0
SMALL
GASTEIGER

@<TRIPOS>ATOM
      1  N        -39.5540   61.8340    7.0220 N.3    22  ARG22      -0.1231
      2  CA       -38.6010   62.6090    7.8000 C.3    22  ARG22       0.1694
      3  C        -37.3090   61.8370    8.0530 C.2    22  ARG22       0.2592
      4  O        -36.3090   62.4230    8.4470 O.2    22  ARG22      -0.2718
      5  CB       -39.2190   63.0980    9.1240 C.3    22  ARG22       0.0321
      6  CG       -39.5930   62.0530   10.1630 C.3    22  ARG22       0.0489
      7  CD       -39.9310   62.7670   11.4750 C.3    22  ARG22       0.2205
      8  NE       -40.2920   61.8680   12.5720 N.pl3  22  ARG22      -0.0865
      9  CZ       -41.4710   61.2570   12.7050 C.cat  22  ARG22       0.5346
     10  NH1      -42.4330   61.4390   11.8010 N.pl3  22  ARG22       0.1354
     11  NH2      -41.6910   60.4670   13.7580 N.pl3  22  ARG22       0.1354
     12  N        -37.3240   60.5320    7.7990 N.am   23  TYR23      -0.1976
     13  CA       -36.1370   59.7030    7.9950 C.3    23  TYR23       0.1639
     14  C        -35.4190   59.4320    6.6770 C.2    23  TYR23       0.2290
     15  O        -34.6340   58.4880    6.5670 O.2    23  TYR23      -0.2864
     16  CB       -36.5130   58.3730    8.6640 C.3    23  TYR23       0.0560
     17  CG       -37.1200   58.5500   10.0370 C.ar   23  TYR23      -0.0198
     18  CD1      -38.5010   58.5840   10.2100 C.ar   23  TYR23      -0.0009
     19  CD2      -36.3130   58.7440   11.1570 C.ar   23  TYR23      -0.0009
     20  CE1      -39.0650   58.8140   11.4670 C.ar   23  TYR23       0.0417
     21  CE2      -36.8620   58.9740   12.4150 C.ar   23  TYR23       0.0417
     22  CZ       -38.2360   59.0100   12.5660 C.ar   23  TYR23       0.1957
     23  OH       -38.7810   59.2500   13.8100 O.3    23  TYR23      -0.2866
     24  N        -32.9240   60.8530    5.2700 N.3    25  SER25      -0.1202
     25  CA       -31.4690   60.9180    5.2880 C.3    25  SER25       0.2020
     26  C        -30.8350   59.6060    5.7130 C.2    25  SER25       0.2618
     27  O        -29.6140   59.4860    5.7420 O.2    25  SER25      -0.2717
     28  CB       -30.9950   62.0230    6.2160 C.3    25  SER25       0.2103
     29  OG       -31.3770   61.7300    7.5420 O.3    25  SER25      -0.2182
     30  N        -31.6610   58.6220    6.0430 N.am   26  LEU26      -0.1979
     31  CA       -31.1570   57.3210    6.4540 C.3    26  LEU26       0.1596
     32  C        -31.1210   56.3640    5.2750 C.2    26  LEU26       0.2287
     33  O        -30.5880   55.2600    5.3790 O.2    26  LEU26      -0.2864
     34  CB       -32.0440   56.7330    7.5530 C.3    26  LEU26       0.0297
     35  CG       -32.1050   57.5030    8.8760 C.3    26  LEU26       0.0022
     36  CD1      -33.0860   56.8240    9.8080 C.3    26  LEU26       0.0001
     37  CD2      -30.7220   57.5600    9.5060 C.3    26  LEU26       0.0001
     38  N        -28.1870   54.1580    4.3910 N.3    29  SER29      -0.1217
     39  CA       -27.6730   53.2790    5.4290 C.3    29  SER29       0.1889
     40  C        -28.7970   52.4970    6.0990 C.2    29  SER29       0.2288
     41  O        -28.7720   52.2280    7.3100 O.2    29  SER29      -0.2866
     42  CB       -26.8370   54.0690    6.4570 C.3    29  SER29       0.2089
     43  OG       -27.3900   55.3330    6.7550 O.3    29  SER29      -0.2183
     44  N        -27.7820   49.3630    7.9980 N.3    32  THR32      -0.1203
     45  CA       -27.3320   49.4060    9.3880 C.3    32  THR32       0.1994
     46  C        -28.5310   49.5940   10.3190 C.2    32  THR32       0.2617
     47  O        -28.4730   49.2230   11.4890 O.2    32  THR32      -0.2717
     48  CB       -26.2720   50.5090    9.6640 C.3    32  THR32       0.1784
     49  OG1      -26.9110   51.7820    9.7410 O.3    32  THR32      -0.2211
     50  CG2      -25.2250   50.5380    8.5670 C.3    32  THR32       0.0376
     51  N        -29.6170   50.1750    9.8110 N.am   33  ILE33      -0.1979
     52  CA       -30.8250   50.3190   10.6260 C.3    33  ILE33       0.1595
     53  C        -31.3850   48.9010   10.8150 C.2    33  ILE33       0.2287
     54  O        -31.8440   48.5360   11.8980 O.2    33  ILE33      -0.2864
     55  CB       -31.9180   51.1560    9.9320 C.3    33  ILE33       0.0276
     56  CG1      -31.4280   52.5810    9.6920 C.3    33  ILE33       0.0022
     57  CG2      -33.1770   51.1680   10.7910 C.3    33  ILE33       0.0022
     58  CD1      -31.0230   53.3010   10.9530 C.3    33  ILE33       0.0001
     59  N        -29.4310   47.1990   13.5280 N.3    36  PHE36      -0.1241
     60  CA       -29.8040   47.5920   14.8780 C.3    36  PHE36       0.1605
     61  C        -31.0750   46.8730   15.3110 C.2    36  PHE36       0.2264
     62  O        -31.1780   46.3850   16.4430 O.2    36  PHE36      -0.2867
     63  CB       -30.0210   49.1090   14.9550 C.3    36  PHE36       0.0534
     64  CG       -28.7510   49.9200   14.8460 C.ar   36  PHE36      -0.0203
     65  CD1      -28.7590   51.1700   14.2250 C.ar   36  PHE36      -0.0042
     66  CD2      -27.5510   49.4460   15.3670 C.ar   36  PHE36      -0.0042
     67  CE1      -27.5890   51.9310   14.1230 C.ar   36  PHE36      -0.0003
     68  CE2      -26.3750   50.2030   15.2710 C.ar   36  PHE36      -0.0003
     69  CZ       -26.3960   51.4430   14.6490 C.ar   36  PHE36      -0.0000
     70  N        -20.0230   49.8100    0.5470 N.3   104  HIS104     -0.1241
     71  CA       -19.7000   50.7840    1.5840 C.3   104  HIS104      0.1621
     72  C        -19.2530   49.9210    2.7680 C.2   104  HIS104      0.2264
     73  O        -19.9980   49.0560    3.2270 O.2   104  HIS104     -0.2867
     74  CB       -20.9370   51.6180    1.9290 C.3   104  HIS104      0.0745
     75  CG       -20.6860   52.6770    2.9530 C.ar  104  HIS104      0.0817
     76  ND1      -20.3640   52.3840    4.2620 N.ar  104  HIS104     -0.2268
     77  CD2      -20.6960   54.0270    2.8600 C.ar  104  HIS104      0.1154
     78  CE1      -20.1870   53.5100    4.9310 C.ar  104  HIS104      0.1986
     79  NE2      -20.3830   54.5210    4.1030 N.ar  104  HIS104     -0.2212
     80  N        -19.1000   50.1060    5.9940 N.3   106  ALA106     -0.1231
     81  CA       -19.9950   49.9180    7.1330 C.3   106  ALA106      0.1694
     82  C        -21.1970   49.0470    6.7450 C.2   106  ALA106      0.2591
     83  O        -21.8130   48.4010    7.5970 O.2   106  ALA106     -0.2718
     84  CB       -20.4770   51.2770    7.6600 C.3   106  ALA106      0.0304
     85  N        -21.5380   49.0350    5.4600 N.am  107  MET107     -0.1979
     86  CA       -22.6610   48.2260    4.9940 C.3   107  MET107      0.1605
     87  C        -22.2050   46.7830    4.7760 C.2   107  MET107      0.2287
     88  O        -22.9490   45.8380    5.0370 O.2   107  MET107     -0.2864
     89  CB       -23.2310   48.8070    3.7010 C.3   107  MET107      0.0413
     90  CG       -23.6500   50.2580    3.8250 C.3   107  MET107      0.0598
     91  SD       -24.7000   50.5590    5.2800 S.3   107  MET107     -0.1393
     92  CE       -24.1290   52.1890    5.7540 C.3   107  MET107      0.0692
     93  N        -14.1510   60.2950    3.9210 N.3   152  GLU152     -0.1245
     94  CA       -13.3470   60.5820    5.0920 C.3   152  GLU152      0.1567
     95  C        -12.7780   59.2270    5.5400 C.2   152  GLU152      0.2260
     96  O        -13.3270   58.1720    5.2060 O.2   152  GLU152     -0.2867
     97  CB       -14.2170   61.1970    6.2020 C.3   152  GLU152      0.0388
     98  CG       -15.2760   60.2670    6.7980 C.3   152  GLU152      0.1160
     99  CD       -16.5150   60.0860    5.9140 C.2   152  GLU152      0.3649
    100  OE1      -16.5490   60.6180    4.7750 O.co2 152  GLU152     -0.2457
    101  OE2      -17.4660   59.4020    6.3640 O.co2 152  GLU152     -0.2457
    102  N        -13.4260   54.5310   12.8150 N.3   156  ARG156     -0.1231
    103  CA       -14.6880   53.8200   12.6130 C.3   156  ARG156      0.1694
    104  C        -14.5510   52.7420   11.5460 C.2   156  ARG156      0.2592
    105  O        -15.0190   51.6120   11.7150 O.2   156  ARG156     -0.2718
    106  CB       -15.7930   54.7820   12.1710 C.3   156  ARG156      0.0321
    107  CG       -16.2320   55.8100   13.1890 C.3   156  ARG156      0.0489
    108  CD       -17.2080   56.7740   12.5340 C.3   156  ARG156      0.2205
    109  NE       -16.5840   57.4630   11.4020 N.pl3 156  ARG156     -0.0865
    110  CZ       -17.2510   57.9650   10.3660 C.cat 156  ARG156      0.5346
    111  NH1      -18.5710   57.8580   10.3040 N.pl3 156  ARG156      0.1354
    112  NH2      -16.6020   58.5700    9.3850 N.pl3 156  ARG156      0.1354
    113  N        -13.9050   53.0960   10.4420 N.am  157  PHE157     -0.1976
    114  CA       -13.7610   52.1630    9.3460 C.3   157  PHE157      0.1639
    115  C        -12.6850   51.1150    9.5700 C.2   157  PHE157      0.2290
    116  O        -12.7110   50.0620    8.9360 O.2   157  PHE157     -0.2864
    117  CB       -13.5520   52.9570    8.0590 C.3   157  PHE157      0.0560
    118  CG       -14.6720   53.9300    7.7790 C.ar  157  PHE157     -0.0200
    119  CD1      -14.4260   55.1430    7.1490 C.ar  157  PHE157     -0.0042
    120  CD2      -15.9760   53.6390    8.1810 C.ar  157  PHE157     -0.0042
    121  CE1      -15.4620   56.0570    6.9300 C.ar  157  PHE157     -0.0003
    122  CE2      -17.0180   54.5420    7.9660 C.ar  157  PHE157     -0.0003
    123  CZ       -16.7600   55.7550    7.3420 C.ar  157  PHE157     -0.0000
    124  N        -20.3170   51.6670   24.0690 N.3   258  TRP258     -0.1241
    125  CA       -19.0020   52.0210   23.5250 C.3   258  TRP258      0.1605
    126  C        -17.9010   51.9610   24.5810 C.2   258  TRP258      0.2264
    127  O        -16.8780   51.2920   24.3920 O.2   258  TRP258     -0.2867
    128  CB       -19.0000   53.4310   22.9080 C.3   258  TRP258      0.0550
    129  CG       -19.9190   53.6330   21.7370 C.ar  258  TRP258      0.0003
    130  CD1      -20.9130   54.5760   21.6260 C.ar  258  TRP258      0.0946
    131  CD2      -19.9110   52.9180   20.5030 C.ar  258  TRP258      0.0152
    132  NE1      -21.5150   54.4880   20.4010 N.ar  258  TRP258     -0.2442
    133  CE2      -20.9230   53.4790   19.6880 C.ar  258  TRP258      0.0810
    134  CE3      -19.1490   51.8580   20.0030 C.ar  258  TRP258      0.0012
    135  CZ2      -21.1920   53.0130   18.3920 C.ar  258  TRP258      0.0191
    136  CZ3      -19.4170   51.3910   18.7110 C.ar  258  TRP258      0.0001
    137  CH2      -20.4310   51.9720   17.9210 C.ar  258  TRP258      0.0015
    138  N        -30.9030   59.1230   23.6810 N.3   294  LYS294     -0.1245
    139  CA       -29.5790   59.4210   24.1940 C.3   294  LYS294      0.1561
    140  C        -29.7150   60.0050   25.6030 C.2   294  LYS294      0.2260
    141  O        -28.9270   59.6960   26.4920 O.2   294  LYS294     -0.2867
    142  CB       -28.8630   60.4010   23.2620 C.3   294  LYS294      0.0271
    143  CG       -29.4610   61.7920   23.2480 C.3   294  LYS294      0.0035
    144  CD       -29.0810   62.5750   22.0000 C.3   294  LYS294      0.0206
    145  CE       -27.5900   62.7880   21.8960 C.3   294  LYS294      0.1093
    146  NZ       -27.2620   63.5280   20.6420 N.3   294  LYS294     -0.1314
    147  N        -34.4180   56.2430   19.1170 N.3   301  ASP301     -0.1239
    148  CA       -34.0050   55.8820   17.7730 C.3   301  ASP301      0.1674
    149  C        -33.4180   54.4800   17.8290 C.2   301  ASP301      0.2266
    150  O        -33.0570   53.9930   18.9010 O.2   301  ASP301     -0.2867
    151  CB       -32.9750   56.8830   17.2230 C.3   301  ASP301      0.1410
    152  CG       -31.7250   56.9670   18.0710 C.2   301  ASP301      0.3668
    153  OD1      -30.9290   56.0080   18.0650 O.co2 301  ASP301     -0.2456
    154  OD2      -31.5320   57.9930   18.7550 O.co2 301  ASP301     -0.2456
    155  N        -30.5240   53.3000   16.9070 N.3   303  LEU303     -0.1231
    156  CA       -29.1570   53.2210   17.4160 C.3   303  LEU303      0.1693
    157  C        -29.0840   53.2150   18.9460 C.2   303  LEU303      0.2592
    158  O        -28.4110   52.3730   19.5420 O.2   303  LEU303     -0.2718
    159  CB       -28.3150   54.3720   16.8580 C.3   303  LEU303      0.0284
    160  CG       -26.8230   54.3830   17.2470 C.3   303  LEU303      0.0019
    161  CD1      -26.0040   55.0160   16.1340 C.3   303  LEU303      0.0001
    162  CD2      -26.6270   55.1410   18.5620 C.3   303  LEU303      0.0001
    163  N        -29.7750   54.1410   19.5960 N.am  304  HIS304     -0.1976
    164  CA       -29.7230   54.1770   21.0420 C.3   304  HIS304      0.1656
    165  C        -30.5110   53.0450   21.6890 C.2   304  HIS304      0.2291
    166  O        -30.2070   52.6240   22.8120 O.2   304  HIS304     -0.2864
    167  CB       -30.1780   55.5460   21.5480 C.3   304  HIS304      0.0771
    168  CG       -29.1810   56.6300   21.2670 C.ar  304  HIS304      0.0820
    169  ND1      -29.1050   57.2760   20.0510 N.ar  304  HIS304     -0.2267
    170  CD2      -28.1450   57.0990   22.0040 C.ar  304  HIS304      0.1154
    171  CE1      -28.0640   58.0880   20.0500 C.ar  304  HIS304      0.1986
    172  NE2      -27.4650   57.9980   21.2220 N.ar  304  HIS304     -0.2212
    173  N        -27.9170   50.0780   21.4200 N.3   307  PHE307     -0.1241
    174  CA       -26.7950   50.2100   22.3300 C.3   307  PHE307      0.1605
    175  C        -27.2250   50.2900   23.7850 C.2   307  PHE307      0.2264
    176  O        -26.4820   49.8820   24.6690 O.2   307  PHE307     -0.2867
    177  CB       -25.9050   51.3920   21.9230 C.3   307  PHE307      0.0534
    178  CG       -25.1180   51.1280   20.6670 C.ar  307  PHE307     -0.0203
    179  CD1      -25.2730   51.9280   19.5380 C.ar  307  PHE307     -0.0042
    180  CD2      -24.2720   50.0280   20.5880 C.ar  307  PHE307     -0.0042
    181  CE1      -24.6000   51.6320   18.3440 C.ar  307  PHE307     -0.0003
    182  CE2      -23.5930   49.7220   19.3980 C.ar  307  PHE307     -0.0003
    183  CZ       -23.7610   50.5310   18.2730 C.ar  307  PHE307     -0.0000
@<TRIPOS>BOND
     1    70    71    1
     2    71    74    1
     3    71    72    1
     4    74    75    1
     5    72    73    2
     6    77    75   ar
     7    77    79   ar
     8    75    76   ar
     9    89    90    1
    10    89    86    1
    11    90    91    1
    12    93    94    1
    13    79    78   ar
    14    76    78   ar
    15    38    39    1
    16   100    99   ar
    17    87    86    1
    18    87    88    2
    19    86    85    1
    20    94    95    1
    21    94    97    1
    22    96    95    2
    23    24    25    1
    24    32    33    2
    25    32    31    1
    26    91    92    1
    27    25    26    1
    28    25    28    1
    29    39    40    1
    30    39    42    1
    31    85    82   am
    32    26    27    2
    33    26    30   am
    34    99   101   ar
    35    99    98    1
    36    80    81    1
    37    30    31    1
    38    40    41    2
    39    97    98    1
    40    28    29    1
    41    31    34    1
    42    42    43    1
    43    15    14    2
    44    14    13    1
    45    82    81    1
    46    82    83    2
    47   121   119   ar
    48   121   123   ar
    49     1     2    1
    50    81    84    1
    51   119   118   ar
    52   123   122   ar
    53    34    35    1
    54   118   117    1
    55   118   120   ar
    56    12    13    1
    57    12     3   am
    58     2     3    1
    59     2     5    1
    60   122   120   ar
    61    13    16    1
    62    44    45    1
    63     3     4    2
    64   117   114    1
    65    50    48    1
    66    16    17    1
    67    35    37    1
    68    35    36    1
    69   116   115    2
    70     5     6    1
    71   114   115    1
    72   114   113    1
    73   112   110    1
    74    45    48    1
    75    45    46    1
    76    48    49    1
    77    56    55    1
    78    56    58    1
    79    51    46   am
    80    51    52    1
    81    55    52    1
    82    55    57    1
    83    17    18   ar
    84    17    19   ar
    85     6     7    1
    86    18    20   ar
    87   111   110    1
    88    46    47    2
    89   110   109    2
    90   113   104   am
    91    52    53    1
    92    53    54    2
    93    19    21   ar
    94   109   108    1
    95    20    22   ar
    96     7     8    1
    97   104   105    2
    98   104   103    1
    99    10     9    1
   100   106   103    1
   101   106   107    1
   102    21    22   ar
   103   108   107    1
   104    22    23    1
   105     8     9    2
   106   103   102    1
   107     9    11    1
   108    59    60    1
   109    67    65   ar
   110    67    69   ar
   111    65    64   ar
   112    69    68   ar
   113    64    63    1
   114    64    66   ar
   115    60    63    1
   116    60    61    1
   117    68    66   ar
   118    61    62    2
   119   161   160    1
   120   159   160    1
   121   159   156    1
   122   155   156    1
   123   151   148    1
   124   151   152    1
   125   160   162    1
   126   156   157    1
   127   148   149    1
   128   148   147    1
   129   149   150    2
   130   137   135   ar
   131   137   136   ar
   132   153   152   ar
   133   152   154   ar
   134   183   181   ar
   135   183   182   ar
   136   181   179   ar
   137   135   133   ar
   138   136   134   ar
   139   157   158    2
   140   157   163   am
   141   182   180   ar
   142   179   178   ar
   143   163   164    1
   144   133   132   ar
   145   133   131   ar
   146   134   131   ar
   147   171   169   ar
   148   171   172   ar
   149   169   168   ar
   150   132   130   ar
   151   131   129   ar
   152   180   178   ar
   153   146   145    1
   154   178   177    1
   155   164   167    1
   156   164   165    1
   157   172   170   ar
   158   168   167    1
   159   168   170   ar
   160   173   174    1
   161   130   129   ar
   162   165   166    2
   163   129   128    1
   164   145   144    1
   165   177   174    1
   166   144   143    1
   167   174   175    1
   168   128   125    1
   169   143   142    1
   170   142   139    1
   171   125   124    1
   172   125   126    1
   173   138   139    1
   174   175   176    2
   175   139   140    1
   176   127   126    2
   177   140   141    2
