@<TRIPOS>MOLECULE
tmp/1n4sD00.pdb
 152 147 0 0 0
SMALL
GASTEIGER

@<TRIPOS>ATOM
      1  N        -27.0760   18.9170   66.2570 N.3    25  SER25      -0.1202
      2  CA       -27.1380   19.8360   67.3840 C.3    25  SER25       0.2020
      3  C        -27.7680   21.1730   67.0230 C.2    25  SER25       0.2618
      4  O        -27.9540   22.0290   67.8870 O.2    25  SER25      -0.2717
      5  CB       -25.7440   20.0730   67.9500 C.3    25  SER25       0.2103
      6  OG       -24.8940   20.5830   66.9450 O.3    25  SER25      -0.2182
      7  N        -28.0930   21.3580   65.7490 N.am   26  LEU26      -0.1979
      8  CA       -28.7180   22.6010   65.3030 C.3    26  LEU26       0.1596
      9  C        -30.2310   22.4300   65.1890 C.2    26  LEU26       0.2287
     10  O        -30.9480   23.3790   64.8750 O.2    26  LEU26      -0.2864
     11  CB       -28.1480   23.0250   63.9450 C.3    26  LEU26       0.0297
     12  CG       -26.6490   23.3380   63.8370 C.3    26  LEU26       0.0022
     13  CD1      -26.3020   23.5570   62.3660 C.3    26  LEU26       0.0001
     14  CD2      -26.2890   24.5610   64.6800 C.3    26  LEU26       0.0001
     15  N        -32.5830   24.9590   66.5660 N.3    29  SER29      -0.1217
     16  CA       -32.4250   26.3210   66.0770 C.3    29  SER29       0.1889
     17  C        -32.3150   26.3720   64.5530 C.2    29  SER29       0.2288
     18  O        -31.6040   27.1970   63.9830 O.2    29  SER29      -0.2866
     19  CB       -31.2250   27.0030   66.7540 C.3    29  SER29       0.2089
     20  OG       -30.0530   26.2260   66.6560 O.3    29  SER29      -0.2183
     21  N        -33.0710   29.7560   62.8830 N.3    32  THR32      -0.1203
     22  CA       -32.0450   30.7840   62.7550 C.3    32  THR32       0.1994
     23  C        -31.0830   30.4120   61.6260 C.2    32  THR32       0.2617
     24  O        -30.4480   31.2880   61.0380 O.2    32  THR32      -0.2717
     25  CB       -31.2400   31.0280   64.0610 C.3    32  THR32       0.1784
     26  OG1      -30.2620   30.0020   64.2190 O.3    32  THR32      -0.2211
     27  CG2      -32.1600   31.0590   65.2700 C.3    32  THR32       0.0376
     28  N        -30.9660   29.1230   61.3160 N.am   33  ILE33      -0.1979
     29  CA       -30.1100   28.7070   60.2000 C.3    33  ILE33       0.1595
     30  C        -30.8060   29.1890   58.9350 C.2    33  ILE33       0.2287
     31  O        -30.1670   29.6870   58.0100 O.2    33  ILE33      -0.2864
     32  CB       -29.9600   27.1750   60.1020 C.3    33  ILE33       0.0276
     33  CG1      -29.2670   26.6420   61.3490 C.3    33  ILE33       0.0022
     34  CG2      -29.1360   26.8070   58.8770 C.3    33  ILE33       0.0022
     35  CD1      -27.9090   27.2490   61.5700 C.3    33  ILE33       0.0001
     36  N        -30.0830   32.9120   58.4810 N.3    36  PHE36      -0.1241
     37  CA       -28.7800   33.2100   57.9120 C.3    36  PHE36       0.1605
     38  C        -28.8030   33.0090   56.4010 C.2    36  PHE36       0.2264
     39  O        -28.2670   33.8290   55.6510 O.2    36  PHE36      -0.2867
     40  CB       -27.7130   32.3080   58.5270 C.3    36  PHE36       0.0534
     41  CG       -27.4340   32.5970   59.9720 C.ar   36  PHE36      -0.0203
     42  CD1      -26.9800   31.5900   60.8210 C.ar   36  PHE36      -0.0042
     43  CD2      -27.6070   33.8810   60.4870 C.ar   36  PHE36      -0.0042
     44  CE1      -26.7040   31.8570   62.1600 C.ar   36  PHE36      -0.0003
     45  CE2      -27.3310   34.1590   61.8300 C.ar   36  PHE36      -0.0003
     46  CZ       -26.8790   33.1420   62.6670 C.ar   36  PHE36      -0.0000
     47  N        -39.3200   30.4040   71.6380 N.3   104  HIS104     -0.1241
     48  CA       -37.9580   30.7040   72.0480 C.3   104  HIS104      0.1621
     49  C        -37.6910   32.1040   71.4810 C.2   104  HIS104      0.2264
     50  O        -37.8360   32.3400   70.2800 O.2   104  HIS104     -0.2867
     51  CB       -37.0000   29.6680   71.4570 C.3   104  HIS104      0.0745
     52  CG       -35.5760   29.8550   71.8730 C.ar  104  HIS104      0.0817
     53  ND1      -34.8190   30.9350   71.4730 N.ar  104  HIS104     -0.2268
     54  CD2      -34.7720   29.1040   72.6620 C.ar  104  HIS104      0.1154
     55  CE1      -33.6100   30.8400   71.9970 C.ar  104  HIS104      0.1986
     56  NE2      -33.5550   29.7380   72.7230 N.ar  104  HIS104     -0.2212
     57  N        -35.1460   33.8910   70.5350 N.3   106  ALA106     -0.1231
     58  CA       -34.3080   34.0260   69.3520 C.3   106  ALA106      0.1694
     59  C        -35.0120   33.4830   68.1090 C.2   106  ALA106      0.2591
     60  O        -34.7060   33.8830   66.9800 O.2   106  ALA106     -0.2718
     61  CB       -32.9860   33.3070   69.5610 C.3   106  ALA106      0.0304
     62  N        -35.9540   32.5660   68.3110 N.am  107  MET107     -0.1979
     63  CA       -36.6960   31.9910   67.1910 C.3   107  MET107      0.1605
     64  C        -37.8450   32.9140   66.8000 C.2   107  MET107      0.2287
     65  O        -38.1700   33.0550   65.6210 O.2   107  MET107     -0.2864
     66  CB       -37.2280   30.6080   67.5620 C.3   107  MET107      0.0413
     67  CG       -36.1470   29.6530   68.0210 C.3   107  MET107      0.0598
     68  SD       -34.7500   29.5750   66.8860 S.3   107  MET107     -0.1393
     69  CE       -33.3750   29.4340   68.0580 C.3   107  MET107      0.0692
     70  N        -30.6930   30.6730   80.6630 N.3   152  GLU152     -0.1245
     71  CA       -29.7220   31.7020   80.9980 C.3   152  GLU152      0.1567
     72  C        -30.3280   33.0240   80.4960 C.2   152  GLU152      0.2260
     73  O        -31.1780   33.0250   79.5970 O.2   152  GLU152     -0.2867
     74  CB       -28.3850   31.4330   80.2970 C.3   152  GLU152      0.0388
     75  CG       -28.3980   31.5690   78.7730 C.3   152  GLU152      0.1160
     76  CD       -29.0230   30.3790   78.0540 C.2   152  GLU152      0.3649
     77  OE1      -29.5330   29.4500   78.7280 O.co2 152  GLU152     -0.2457
     78  OE2      -29.0070   30.3750   76.8010 O.co2 152  GLU152     -0.2457
     79  N        -27.8440   39.0900   74.7750 N.3   156  ARG156     -0.1231
     80  CA       -28.3130   38.5190   73.5200 C.3   156  ARG156      0.1694
     81  C        -29.8330   38.5710   73.4070 C.2   156  ARG156      0.2592
     82  O        -30.3820   38.9330   72.3690 O.2   156  ARG156     -0.2718
     83  CB       -27.8820   37.0550   73.3900 C.3   156  ARG156      0.0321
     84  CG       -26.3920   36.8060   73.2370 C.3   156  ARG156      0.0489
     85  CD       -26.1140   35.3040   73.2990 C.3   156  ARG156      0.2205
     86  NE       -26.5810   34.7270   74.5620 N.pl3 156  ARG156     -0.0865
     87  CZ       -27.0080   33.4740   74.6990 C.cat 156  ARG156      0.5346
     88  NH1      -27.0260   32.6650   73.6460 N.pl3 156  ARG156      0.1354
     89  NH2      -27.4270   33.0350   75.8810 N.pl3 156  ARG156      0.1354
     90  N        -30.5140   38.1930   74.4780 N.am  157  PHE157     -0.1976
     91  CA       -31.9640   38.1590   74.4620 C.3   157  PHE157      0.1639
     92  C        -32.6060   39.5290   74.6040 C.2   157  PHE157      0.2290
     93  O        -33.7670   39.7100   74.2220 O.2   157  PHE157     -0.2864
     94  CB       -32.4440   37.1720   75.5270 C.3   157  PHE157      0.0560
     95  CG       -31.8900   35.7820   75.3330 C.ar  157  PHE157     -0.0200
     96  CD1      -31.6010   34.9660   76.4220 C.ar  157  PHE157     -0.0042
     97  CD2      -31.6150   35.3050   74.0460 C.ar  157  PHE157     -0.0042
     98  CE1      -31.0410   33.6950   76.2310 C.ar  157  PHE157     -0.0003
     99  CE2      -31.0560   34.0350   73.8450 C.ar  157  PHE157     -0.0003
    100  CZ       -30.7690   33.2340   74.9370 C.ar  157  PHE157     -0.0000
    101  N        -20.4170   42.3160   63.9980 N.3   258  TRP258     -0.1241
    102  CA       -20.7570   42.6860   65.3710 C.3   258  TRP258      0.1605
    103  C        -20.1290   44.0240   65.7700 C.2   258  TRP258      0.2264
    104  O        -20.8210   44.9490   66.2030 O.2   258  TRP258     -0.2867
    105  CB       -20.2990   41.6140   66.3710 C.3   258  TRP258      0.0550
    106  CG       -20.9420   40.2570   66.2040 C.ar  258  TRP258      0.0003
    107  CD1      -20.2950   39.0630   66.0130 C.ar  258  TRP258      0.0946
    108  CD2      -22.3390   39.9500   66.2510 C.ar  258  TRP258      0.0152
    109  NE1      -21.2040   38.0380   65.9380 N.ar  258  TRP258     -0.2442
    110  CE2      -22.4650   38.5510   66.0800 C.ar  258  TRP258      0.0810
    111  CE3      -23.4990   40.7190   66.4210 C.ar  258  TRP258      0.0012
    112  CZ2      -23.7070   37.9040   66.0780 C.ar  258  TRP258      0.0191
    113  CZ3      -24.7400   40.0710   66.4190 C.ar  258  TRP258      0.0001
    114  CH2      -24.8290   38.6800   66.2490 C.ar  258  TRP258      0.0015
    115  N        -14.5850   31.3380   60.3580 N.3   294  LYS294     -0.1245
    116  CA       -14.1640   32.3270   61.3340 C.3   294  LYS294      0.1561
    117  C        -12.7130   32.7090   61.0580 C.2   294  LYS294      0.2260
    118  O        -12.3360   33.8770   61.1680 O.2   294  LYS294     -0.2867
    119  CB       -14.3150   31.7670   62.7520 C.3   294  LYS294      0.0271
    120  CG       -13.3610   30.6330   63.0670 C.3   294  LYS294      0.0035
    121  CD       -13.8290   29.8070   64.2560 C.3   294  LYS294      0.0206
    122  CE       -13.9740   30.6340   65.5150 C.3   294  LYS294      0.1093
    123  NZ       -14.4790   29.7830   66.6280 N.3   294  LYS294     -0.1314
    124  N        -23.4830   30.8480   59.8390 N.3   303  LEU303     -0.1231
    125  CA       -23.3200   32.0550   60.6400 C.3   303  LEU303      0.1693
    126  C        -22.1870   32.9590   60.1420 C.2   303  LEU303      0.2592
    127  O        -22.3760   34.1640   59.9690 O.2   303  LEU303     -0.2718
    128  CB       -23.0970   31.6950   62.1140 C.3   303  LEU303      0.0284
    129  CG       -22.9770   32.8650   63.1000 C.3   303  LEU303      0.0019
    130  CD1      -23.5130   32.4490   64.4540 C.3   303  LEU303      0.0001
    131  CD2      -21.5240   33.3240   63.2110 C.3   303  LEU303      0.0001
    132  N        -21.0150   32.3900   59.9060 N.am  304  HIS304     -0.1976
    133  CA       -19.9090   33.2060   59.4420 C.3   304  HIS304      0.1656
    134  C        -20.0540   33.6280   57.9910 C.2   304  HIS304      0.2291
    135  O        -19.5160   34.6540   57.5830 O.2   304  HIS304     -0.2864
    136  CB       -18.5810   32.4890   59.6860 C.3   304  HIS304      0.0771
    137  CG       -18.2200   32.4150   61.1350 C.ar  304  HIS304      0.0820
    138  ND1      -18.7390   31.4630   61.9840 N.ar  304  HIS304     -0.2267
    139  CD2      -17.4650   33.2340   61.9060 C.ar  304  HIS304      0.1154
    140  CE1      -18.3210   31.6990   63.2150 C.ar  304  HIS304      0.1986
    141  NE2      -17.5480   32.7680   63.1960 N.ar  304  HIS304     -0.2212
    142  N        -22.5090   36.6990   58.3670 N.3   307  PHE307     -0.1241
    143  CA       -21.8850   37.8710   58.9580 C.3   307  PHE307      0.1605
    144  C        -20.6800   38.3650   58.1600 C.2   307  PHE307      0.2264
    145  O        -20.3660   39.5550   58.1770 O.2   307  PHE307     -0.2867
    146  CB       -21.5400   37.6060   60.4300 C.3   307  PHE307      0.0534
    147  CG       -22.7530   37.5650   61.3220 C.ar  307  PHE307     -0.0203
    148  CD1      -23.0570   36.4250   62.0650 C.ar  307  PHE307     -0.0042
    149  CD2      -23.6350   38.6450   61.3650 C.ar  307  PHE307     -0.0042
    150  CE1      -24.2290   36.3620   62.8330 C.ar  307  PHE307     -0.0003
    151  CE2      -24.8040   38.5910   62.1260 C.ar  307  PHE307     -0.0003
    152  CZ       -25.1020   37.4460   62.8610 C.ar  307  PHE307     -0.0000
@<TRIPOS>BOND
     1    39    38    2
     2    38    37    1
     3   135   134    2
     4    37    36    1
     5    37    40    1
     6   134   133    1
     7    31    30    2
     8   144   145    2
     9   144   143    1
    10   142   143    1
    11    40    41    1
    12    34    32    1
    13    30    29    1
    14   143   146    1
    15   133   136    1
    16   133   132    1
    17   136   137    1
    18   124   125    1
    19   132   126   am
    20   127   126    2
    21    41    43   ar
    22    41    42   ar
    23    32    29    1
    24    32    33    1
    25   126   125    1
    26    29    28    1
    27   115   116    1
    28   146   147    1
    29    43    45   ar
    30   125   128    1
    31    42    44   ar
    32    24    23    2
    33   117   118    2
    34   117   116    1
    35   137   139   ar
    36   137   138   ar
    37    28    23   am
    38   147   149   ar
    39   147   148   ar
    40   116   119    1
    41    33    35    1
    42   149   151   ar
    43    23    22    1
    44    45    46   ar
    45   139   141   ar
    46   138   140   ar
    47   148   150   ar
    48   128   129    1
    49   151   152   ar
    50    44    46   ar
    51    13    12    1
    52   119   120    1
    53    22    21    1
    54    22    25    1
    55   150   152   ar
    56   120   121    1
    57   129   131    1
    58   129   130    1
    59   141   140   ar
    60    12    11    1
    61    12    14    1
    62    11     8    1
    63    18    17    2
    64   101   102    1
    65    25    26    1
    66    25    27    1
    67   121   122    1
    68    17    16    1
    69    10     9    2
    70     9     8    1
    71     8     7    1
    72   102   103    1
    73   102   105    1
    74   122   123    1
    75    65    64    2
    76     7     3   am
    77   103   104    2
    78   109   107   ar
    79   109   110   ar
    80   107   106   ar
    81    16    15    1
    82    16    19    1
    83   112   110   ar
    84   112   114   ar
    85   110   108   ar
    86   106   108   ar
    87   106   105    1
    88   114   113   ar
    89   108   111   ar
    90     1     2    1
    91   113   111   ar
    92    20    19    1
    93    64    63    1
    94    68    67    1
    95    68    69    1
    96     6     5    1
    97    60    59    2
    98     3     2    1
    99     3     4    2
   100    63    66    1
   101    63    62    1
   102     2     5    1
   103    66    67    1
   104    59    62   am
   105    59    58    1
   106    58    61    1
   107    58    57    1
   108    50    49    2
   109    51    52    1
   110    51    48    1
   111    53    52   ar
   112    53    55   ar
   113    49    48    1
   114    47    48    1
   115    52    54   ar
   116    55    56   ar
   117    82    81    2
   118    54    56   ar
   119    84    85    1
   120    84    83    1
   121    85    86    1
   122    83    80    1
   123    81    80    1
   124    81    90   am
   125    80    79    1
   126    88    87    1
   127    99    97   ar
   128    99   100   ar
   129    97    95   ar
   130    93    92    2
   131    91    90    1
   132    91    92    1
   133    91    94    1
   134    86    87    2
   135    87    89    1
   136   100    98   ar
   137    95    94    1
   138    95    96   ar
   139    98    96   ar
   140    78    76   ar
   141    76    77   ar
   142    76    75    1
   143    75    74    1
   144    73    72    2
   145    74    71    1
   146    72    71    1
   147    70    71    1
