@<TRIPOS>MOLECULE
tmp/1n51A00.pdb
 156 148 0 0 0
SMALL
GASTEIGER

@<TRIPOS>ATOM
      1  N         26.9410   53.8830   52.5350 N.3   229  TYR229     -0.1227
      2  CA        25.8790   53.8500   51.5210 C.3   229  TYR229      0.1736
      3  C         25.6210   52.3890   51.1690 C.2   229  TYR229      0.2595
      4  O         26.4510   51.5260   51.4550 O.2   229  TYR229     -0.2718
      5  CB        26.2690   54.6300   50.2550 C.3   229  TYR229      0.0548
      6  CG        27.5850   54.2080   49.6430 C.ar  229  TYR229     -0.0200
      7  CD1       28.7830   54.7690   50.0780 C.ar  229  TYR229     -0.0009
      8  CD2       27.6370   53.2210   48.6540 C.ar  229  TYR229     -0.0009
      9  CE1       30.0060   54.3630   49.5500 C.ar  229  TYR229      0.0417
     10  CE2       28.8540   52.8020   48.1180 C.ar  229  TYR229      0.0417
     11  CZ        30.0390   53.3790   48.5730 C.ar  229  TYR229      0.1957
     12  OH        31.2580   52.9770   48.0650 O.3   229  TYR229     -0.2866
     13  N         24.4760   52.1100   50.5560 N.am  230  ASN230     -0.1974
     14  CA        24.1350   50.7320   50.2030 C.3   230  ASN230      0.1688
     15  C         25.1050   50.1400   49.1840 C.2   230  ASN230      0.2292
     16  O         25.3060   50.6850   48.0980 O.2   230  ASN230     -0.2864
     17  CB        22.6940   50.6630   49.6940 C.3   230  ASN230      0.1181
     18  CG        21.6860   51.1190   50.7480 C.2   230  ASN230      0.2629
     19  OD1       21.8500   50.8420   51.9330 O.2   230  ASN230     -0.2716
     20  ND2       20.6390   51.8110   50.3160 N.am  230  ASN230     -0.0877
     21  N         27.0060   48.0840   46.3620 N.3   232  ILE232     -0.1245
     22  CA        26.6810   47.7370   44.9900 C.3   232  ILE232      0.1561
     23  C         27.5940   46.6260   44.4910 C.2   232  ILE232      0.2260
     24  O         28.8150   46.7880   44.4630 O.2   232  ILE232     -0.2867
     25  CB        26.8630   48.9730   44.0640 C.3   232  ILE232      0.0252
     26  CG1       25.7920   50.0200   44.3830 C.3   232  ILE232      0.0019
     27  CG2       26.8220   48.5550   42.5960 C.3   232  ILE232      0.0019
     28  CD1       26.0480   51.3690   43.7490 C.3   232  ILE232      0.0001
     29  N         24.0310   51.8900   37.3390 N.3   242  LEU242     -0.1231
     30  CA        24.8010   52.7060   38.2750 C.3   242  LEU242      0.1693
     31  C         24.5760   52.4460   39.7640 C.2   242  LEU242      0.2592
     32  O         25.5430   52.2790   40.5110 O.2   242  LEU242     -0.2718
     33  CB        24.6080   54.1930   37.9480 C.3   242  LEU242      0.0284
     34  CG        25.0500   54.5660   36.5260 C.3   242  LEU242      0.0019
     35  CD1       25.0460   56.0800   36.3600 C.3   242  LEU242      0.0001
     36  CD2       26.4420   54.0040   36.2580 C.3   242  LEU242      0.0001
     37  N         23.3250   52.4240   40.2120 N.am  243  HIS243     -0.1976
     38  CA        23.0680   52.1480   41.6240 C.3   243  HIS243      0.1656
     39  C         22.3180   50.8270   41.7850 C.2   243  HIS243      0.2291
     40  O         21.2080   50.7730   42.3230 O.2   243  HIS243     -0.2864
     41  CB        22.2930   53.2950   42.2940 C.3   243  HIS243      0.0771
     42  CG        23.1070   54.5380   42.5050 C.ar  243  HIS243      0.0820
     43  ND1       22.6740   55.6340   43.2210 N.ar  243  HIS243     -0.2267
     44  CD2       24.3450   54.8640   42.0520 C.ar  243  HIS243      0.1154
     45  CE1       23.6390   56.5680   43.1770 C.ar  243  HIS243      0.1986
     46  NE2       24.6760   56.1480   42.4780 N.ar  243  HIS243     -0.2212
     47  N         21.5910   47.7410   43.5730 N.3   245  THR245     -0.1218
     48  CA        21.7580   47.2990   44.9570 C.3   245  THR245      0.1862
     49  C         21.1310   45.9440   45.2720 C.2   245  THR245      0.2287
     50  O         21.3110   45.4200   46.3720 O.2   245  THR245     -0.2866
     51  CB        21.1810   48.3310   45.9340 C.3   245  THR245      0.1770
     52  OG1       19.8060   48.5670   45.6150 O.3   245  THR245     -0.2211
     53  CG2       21.9470   49.6340   45.8360 C.3   245  THR245      0.0375
     54  N         30.9710   48.6860   44.3730 N.3   260  ASP260     -0.1239
     55  CA        31.0840   50.0400   44.8840 C.3   260  ASP260      0.1674
     56  C         30.6190   49.9110   46.3320 C.2   260  ASP260      0.2266
     57  O         29.4410   49.6690   46.5960 O.2   260  ASP260     -0.2867
     58  CB        30.1730   50.9910   44.1100 C.3   260  ASP260      0.1410
     59  CG        30.5360   52.4600   44.3240 C.2   260  ASP260      0.3668
     60  OD1       31.2290   52.7860   45.3110 O.co2 260  ASP260     -0.2456
     61  OD2       30.1110   53.2980   43.5020 O.co2 260  ASP260     -0.2456
     62  N         34.7370   55.4430   50.1030 N.3   271  ASP271     -0.1239
     63  CA        33.9590   55.2510   48.8790 C.3   271  ASP271      0.1674
     64  C         34.8540   54.7150   47.7810 C.2   271  ASP271      0.2266
     65  O         35.5000   55.4770   47.0710 O.2   271  ASP271     -0.2867
     66  CB        33.3260   56.5750   48.4350 C.3   271  ASP271      0.1410
     67  CG        32.4610   56.4270   47.1960 C.2   271  ASP271      0.3668
     68  OD1       32.2920   55.2850   46.7200 O.co2 271  ASP271     -0.2456
     69  OD2       31.9420   57.4540   46.6990 O.co2 271  ASP271     -0.2456
     70  N         27.7640   60.0550   34.1960 N.3   350  HIS350     -0.1226
     71  CA        27.7780   60.6770   35.5140 C.3   350  HIS350      0.1752
     72  C         29.0670   61.4700   35.6990 C.2   350  HIS350      0.2596
     73  O         29.9450   61.4470   34.8330 O.2   350  HIS350     -0.2718
     74  CB        27.6110   59.6230   36.6210 C.3   350  HIS350      0.0759
     75  CG        28.6870   58.5830   36.6470 C.ar  350  HIS350      0.0818
     76  ND1       29.9410   58.7820   37.1820 N.ar  350  HIS350     -0.2268
     77  CD2       28.6670   57.2930   36.2230 C.ar  350  HIS350      0.1154
     78  CE1       30.6260   57.6300   37.0760 C.ar  350  HIS350      0.1986
     79  NE2       29.8940   56.6960   36.4990 N.ar  350  HIS350     -0.2212
     80  N         29.1700   62.1780   36.8210 N.am  351  GLY351     -0.1957
     81  CA        30.3410   62.9930   37.0890 C.3   351  GLY351      0.1869
     82  C         31.5770   62.2050   37.4620 C.2   351  GLY351      0.2309
     83  O         31.4920   61.0490   37.8690 O.2   351  GLY351     -0.2863
     84  N         33.8020   63.2920   39.8240 N.3   353  SER353     -0.1202
     85  CA        34.1050   63.4550   41.2370 C.3   353  SER353      0.2020
     86  C         33.0230   64.1390   42.0580 C.2   353  SER353      0.2618
     87  O         32.2350   64.9220   41.5400 O.2   353  SER353     -0.2717
     88  CB        35.3960   64.2720   41.3820 C.3   353  SER353      0.2103
     89  OG        36.4520   63.7280   40.6090 O.3   353  SER353     -0.2182
     90  N         33.0000   63.8400   43.3520 N.am  354  HIS354     -0.1975
     91  CA        32.0620   64.4780   44.2630 C.3   354  HIS354      0.1656
     92  C         32.7740   64.6440   45.5970 C.2   354  HIS354      0.2291
     93  O         33.6910   63.8820   45.9160 O.2   354  HIS354     -0.2864
     94  CB        30.7660   63.6540   44.4210 C.3   354  HIS354      0.0771
     95  CG        30.9680   62.2800   44.9880 C.ar  354  HIS354      0.0820
     96  ND1       31.2940   62.0230   46.3020 N.ar  354  HIS354     -0.2267
     97  CD2       30.8600   61.0640   44.3920 C.ar  354  HIS354      0.1154
     98  CE1       31.3690   60.6890   46.4580 C.ar  354  HIS354      0.1986
     99  NE2       31.1150   60.0600   45.3260 N.ar  354  HIS354     -0.2212
    100  N         28.6730   60.5510   52.0110 N.3   360  VAL360     -0.1231
    101  CA        29.4040   60.0660   50.8500 C.3   360  VAL360      0.1692
    102  C         29.3550   61.1080   49.7270 C.2   360  VAL360      0.2592
    103  O         30.3730   61.3910   49.1020 O.2   360  VAL360     -0.2718
    104  CB        28.8890   58.6750   50.3980 C.3   360  VAL360      0.0266
    105  CG1       27.4170   58.7390   50.0160 C.3   360  VAL360      0.0020
    106  CG2       29.7490   58.1630   49.2560 C.3   360  VAL360      0.0020
    107  N         28.1850   61.6810   49.4670 N.am  361  HIS361     -0.1976
    108  CA        28.0750   62.7600   48.4760 C.3   361  HIS361      0.1656
    109  C         28.0630   63.9830   49.3830 C.2   361  HIS361      0.2291
    110  O         26.9980   64.5230   49.6960 O.2   361  HIS361     -0.2864
    111  CB        26.7530   62.6890   47.7150 C.3   361  HIS361      0.0771
    112  CG        26.6800   61.5650   46.7330 C.ar  361  HIS361      0.0820
    113  ND1       25.4980   61.1680   46.1440 N.ar  361  HIS361     -0.2267
    114  CD2       27.6430   60.7650   46.2180 C.ar  361  HIS361      0.1154
    115  CE1       25.7360   60.1720   45.3110 C.ar  361  HIS361      0.1986
    116  NE2       27.0310   59.9080   45.3360 N.ar  361  HIS361     -0.2212
    117  N         30.6450   72.4830   38.2760 N.3   370  ARG370     -0.1245
    118  CA        31.7280   71.9900   39.1230 C.3   370  ARG370      0.1563
    119  C         33.0730   72.6020   38.7250 C.2   370  ARG370      0.2260
    120  O         34.1120   71.9360   38.7290 O.2   370  ARG370     -0.2867
    121  CB        31.7670   70.4580   39.0560 C.3   370  ARG370      0.0307
    122  CG        30.3800   69.8530   39.2500 C.3   370  ARG370      0.0489
    123  CD        30.3850   68.4300   39.7820 C.3   370  ARG370      0.2205
    124  NE        29.0730   68.1040   40.3470 N.pl3 370  ARG370     -0.0865
    125  CZ        28.7630   66.9560   40.9470 C.cat 370  ARG370      0.5346
    126  NH1       29.6710   65.9970   41.0680 N.pl3 370  ARG370      0.1354
    127  NH2       27.5410   66.7690   41.4340 N.pl3 370  ARG370      0.1354
    128  N         36.1960   58.9210   40.0460 N.3   383  GLU383     -0.1245
    129  CA        35.5530   57.6970   39.5990 C.3   383  GLU383      0.1567
    130  C         35.0920   57.5990   38.1540 C.2   383  GLU383      0.2260
    131  O         33.8900   57.5570   37.8750 O.2   383  GLU383     -0.2867
    132  CB        34.3660   57.4030   40.5200 C.3   383  GLU383      0.0388
    133  CG        33.3870   58.5650   40.6650 C.3   383  GLU383      0.1160
    134  CD        32.3090   58.2780   41.6890 C.2   383  GLU383      0.3649
    135  OE1       31.6270   57.2460   41.5440 O.co2 383  GLU383     -0.2457
    136  OE2       32.1440   59.0760   42.6390 O.co2 383  GLU383     -0.2457
    137  N         33.8680   50.6440   36.5210 N.3   404  ARG404     -0.1245
    138  CA        34.1210   51.8870   37.2300 C.3   404  ARG404      0.1563
    139  C         35.2530   51.6120   38.2040 C.2   404  ARG404      0.2260
    140  O         35.3070   50.5430   38.8190 O.2   404  ARG404     -0.2867
    141  CB        32.8780   52.3760   37.9940 C.3   404  ARG404      0.0307
    142  CG        33.1660   53.6040   38.8800 C.3   404  ARG404      0.0489
    143  CD        31.9130   54.3560   39.3490 C.3   404  ARG404      0.2205
    144  NE        31.1190   53.6280   40.3400 N.pl3 404  ARG404     -0.0865
    145  CZ        29.9760   53.0020   40.0720 C.cat 404  ARG404      0.5346
    146  NH1       29.4820   53.0100   38.8390 N.pl3 404  ARG404      0.1354
    147  NH2       29.3220   52.3700   41.0400 N.pl3 404  ARG404      0.1354
    148  N         37.1340   53.6680   41.3090 N.3   406  GLU406     -0.1245
    149  CA        37.0580   54.8710   42.1190 C.3   406  GLU406      0.1567
    150  C         37.9580   54.9060   43.3470 C.2   406  GLU406      0.2260
    151  O         37.9920   53.9580   44.1310 O.2   406  GLU406     -0.2867
    152  CB        35.5950   55.0790   42.5330 C.3   406  GLU406      0.0388
    153  CG        35.3720   55.9360   43.7730 C.3   406  GLU406      0.1160
    154  CD        33.8960   56.0990   44.1080 C.2   406  GLU406      0.3649
    155  OE1       33.1670   55.0850   44.0510 O.co2 406  GLU406     -0.2457
    156  OE2       33.4700   57.2330   44.4350 O.co2 406  GLU406     -0.2457
@<TRIPOS>BOND
     1    70    71    1
     2    73    72    2
     3    71    72    1
     4    71    74    1
     5    72    80   am
     6    77    79   ar
     7    77    75   ar
     8    36    34    1
     9    35    34    1
    10    79    78   ar
    11   137   138    1
    12    34    33    1
    13    74    75    1
    14    75    76   ar
    15    80    81    1
    16    78    76   ar
    17    81    82    1
    18   138   141    1
    19   138   139    1
    20    29    30    1
    21    82    83    2
    22   131   130    2
    23    33    30    1
    24   141   142    1
    25   130   129    1
    26   139   140    2
    27    30    31    1
    28   117   118    1
    29   119   120    2
    30   119   118    1
    31   146   145    1
    32   142   143    1
    33   121   118    1
    34   121   122    1
    35   122   123    1
    36   143   144    1
    37   129   128    1
    38   129   132    1
    39    31    37   am
    40    31    32    2
    41   123   124    1
    42    84    85    1
    43   145   144    2
    44   145   147    1
    45    37    38    1
    46   124   125    2
    47   132   133    1
    48    89    88    1
    49   133   134    1
    50   125   126    1
    51   125   127    1
    52    85    88    1
    53    85    86    1
    54   148   149    1
    55    87    86    2
    56   135   134   ar
    57    38    39    1
    58    38    41    1
    59   134   136   ar
    60    39    40    2
    61    44    46   ar
    62    44    42   ar
    63    86    90   am
    64   149   152    1
    65   149   150    1
    66    41    42    1
    67    46    45   ar
    68    42    43   ar
    69   152   153    1
    70    27    25    1
    71    45    43   ar
    72   150   151    2
    73    90    91    1
    74    61    59   ar
    75    47    48    1
    76    28    26    1
    77   153   154    1
    78   155   154   ar
    79    25    26    1
    80    25    22    1
    81   154   156   ar
    82    58    59    1
    83    58    55    1
    84    91    94    1
    85    91    92    1
    86    59    60   ar
    87    54    55    1
    88    97    95   ar
    89    97    99   ar
    90    94    95    1
    91    24    23    2
    92    23    22    1
    93    55    56    1
    94    48    49    1
    95    48    51    1
    96    95    96   ar
    97    22    21    1
    98    49    50    2
    99   115   116   ar
   100   115   113   ar
   101    99    98   ar
   102   116   114   ar
   103    92    93    2
   104    52    51    1
   105    53    51    1
   106   113   112   ar
   107   114   112   ar
   108    96    98   ar
   109    56    57    2
   110    69    67   ar
   111    68    67   ar
   112   112   111    1
   113    65    64    2
   114    67    66    1
   115   111   108    1
   116    64    63    1
   117    12    11    1
   118    16    15    2
   119    10    11   ar
   120    10     8   ar
   121    66    63    1
   122   108   109    1
   123   108   107    1
   124    11     9   ar
   125     8     6   ar
   126    63    62    1
   127   103   102    2
   128    15    14    1
   129   106   104    1
   130   109   110    2
   131   107   102   am
   132     9     7   ar
   133     6     7   ar
   134     6     5    1
   135    17    14    1
   136    17    18    1
   137   102   101    1
   138   105   104    1
   139    14    13    1
   140     5     2    1
   141    20    18   am
   142   104   101    1
   143    13     3   am
   144    18    19    2
   145   101   100    1
   146     3     4    2
   147     3     2    1
   148     2     1    1
