@<TRIPOS>MOLECULE
tmp/1n52B00.pdb
 211 206 0 0 0
SMALL
GASTEIGER

@<TRIPOS>ATOM
      1  N         -0.8670   44.4270    0.4230 N.3    15  TYR15      -0.1227
      2  CA        -0.9470   43.0180    0.0740 C.3    15  TYR15       0.1736
      3  C         -2.0490   42.7010   -0.9270 C.2    15  TYR15       0.2595
      4  O         -3.1090   43.3420   -0.9360 O.2    15  TYR15      -0.2718
      5  CB        -1.1740   42.1660    1.3150 C.3    15  TYR15       0.0548
      6  CG        -1.2840   40.6920    1.0020 C.ar   15  TYR15      -0.0200
      7  CD1       -0.1470   39.8870    0.9420 C.ar   15  TYR15      -0.0009
      8  CD2       -2.5290   40.1040    0.7620 C.ar   15  TYR15      -0.0009
      9  CE1       -0.2400   38.5220    0.6560 C.ar   15  TYR15       0.0417
     10  CE2       -2.6370   38.7410    0.4750 C.ar   15  TYR15       0.0417
     11  CZ        -1.4880   37.9540    0.4300 C.ar   15  TYR15       0.1957
     12  OH        -1.5900   36.5940    0.2190 O.3    15  TYR15      -0.2866
     13  N         -1.7790   41.6980   -1.7600 N.am   16  ARG16      -0.1966
     14  CA        -2.7310   41.2210   -2.7500 C.3    16  ARG16       0.1729
     15  C         -2.4920   39.7240   -2.9410 C.2    16  ARG16       0.2616
     16  O         -1.3480   39.2830   -3.1210 O.2    16  ARG16      -0.2715
     17  CB        -2.5610   41.9640   -4.0750 C.3    16  ARG16       0.0348
     18  CG        -3.0150   43.4140   -4.0430 C.3    16  ARG16       0.0492
     19  CD        -4.5070   43.5320   -3.7370 C.3    16  ARG16       0.2205
     20  NE        -4.9810   44.9110   -3.8440 N.pl3  16  ARG16      -0.0865
     21  CZ        -4.7040   45.8630   -2.9580 C.cat  16  ARG16       0.5346
     22  NH1       -3.9620   45.5720   -1.8940 N.pl3  16  ARG16       0.1354
     23  NH2       -5.1530   47.1040   -3.1360 N.pl3  16  ARG16       0.1354
     24  N         -3.5710   38.9450   -2.8660 N.am   17  ASP17      -0.1957
     25  CA        -3.4920   37.4980   -3.0270 C.3    17  ASP17       0.1840
     26  C         -3.1790   37.2210   -4.4870 C.2    17  ASP17       0.2621
     27  O         -3.9990   37.5050   -5.3550 O.2    17  ASP17      -0.2715
     28  CB        -4.8260   36.8630   -2.6450 C.3    17  ASP17       0.1450
     29  CG        -4.8160   35.3530   -2.7650 C.2    17  ASP17       0.3671
     30  OD1       -3.7180   34.7600   -2.8780 O.co2  17  ASP17      -0.2456
     31  OD2       -5.9170   34.7580   -2.7320 O.co2  17  ASP17      -0.2456
     32  N         -1.9930   36.6800   -4.7550 N.am   18  GLN18      -0.1977
     33  CA        -1.5740   36.3910   -6.1280 C.3    18  GLN18       0.1601
     34  C         -2.3190   35.2270   -6.7750 C.2    18  GLN18       0.2287
     35  O         -2.2060   35.0250   -7.9890 O.2    18  GLN18      -0.2864
     36  CB        -0.0660   36.1050   -6.1880 C.3    18  GLN18       0.0394
     37  CG         0.8180   37.2740   -5.7770 C.3    18  GLN18       0.0908
     38  CD         0.5780   38.5170   -6.6240 C.2    18  GLN18       0.2608
     39  OE1        0.7550   38.4920   -7.8460 O.2    18  GLN18      -0.2717
     40  NE2        0.1710   39.6120   -5.9790 N.am   18  GLN18      -0.0878
     41  N        -12.3290   43.4170   -0.9710 N.3    31  LEU31      -0.1245
     42  CA       -11.6610   43.9060    0.2270 C.3    31  LEU31       0.1561
     43  C        -12.3790   45.0850    0.8970 C.2    31  LEU31       0.2260
     44  O        -12.4370   45.1500    2.1240 O.2    31  LEU31      -0.2867
     45  CB       -10.2310   44.3270   -0.1090 C.3    31  LEU31       0.0270
     46  CG        -9.2260   43.2540   -0.5150 C.3    31  LEU31       0.0019
     47  CD1       -7.9650   43.9280   -1.0410 C.3    31  LEU31       0.0001
     48  CD2       -8.9020   42.3710    0.6740 C.3    31  LEU31       0.0001
     49  N         -7.5190   38.9370    7.7500 N.3    38  TYR38      -0.1241
     50  CA        -6.3650   38.0610    7.7590 C.3    38  TYR38       0.1605
     51  C         -5.6240   38.4200    9.0390 C.2    38  TYR38       0.2264
     52  O         -5.4360   39.6050    9.3210 O.2    38  TYR38      -0.2867
     53  CB        -5.4470   38.3640    6.5920 C.3    38  TYR38       0.0534
     54  CG        -4.0780   37.7670    6.7940 C.ar   38  TYR38      -0.0201
     55  CD1       -3.8670   36.4010    6.6030 C.ar   38  TYR38      -0.0009
     56  CD2       -2.9970   38.5620    7.2070 C.ar   38  TYR38      -0.0009
     57  CE1       -2.6200   35.8360    6.8090 C.ar   38  TYR38       0.0417
     58  CE2       -1.7370   38.0030    7.4130 C.ar   38  TYR38       0.0417
     59  CZ        -1.5590   36.6380    7.2070 C.ar   38  TYR38       0.1957
     60  OH        -0.3200   36.0580    7.3390 O.3    38  TYR38      -0.2866
     61  N         -1.0360   31.9180   11.3870 N.3    78  PHE78      -0.1241
     62  CA        -1.9190   32.9340   10.8220 C.3    78  PHE78       0.1605
     63  C         -3.3240   32.3780   10.8680 C.2    78  PHE78       0.2264
     64  O         -3.5150   31.2060   11.2140 O.2    78  PHE78      -0.2867
     65  CB        -1.5140   33.2720    9.3810 C.3    78  PHE78       0.0534
     66  CG        -1.9530   32.2590    8.3500 C.ar   78  PHE78      -0.0203
     67  CD1       -3.1920   32.3800    7.7130 C.ar   78  PHE78      -0.0042
     68  CD2       -1.1210   31.1980    7.9990 C.ar   78  PHE78      -0.0042
     69  CE1       -3.5880   31.4610    6.7430 C.ar   78  PHE78      -0.0003
     70  CE2       -1.5060   30.2700    7.0310 C.ar   78  PHE78      -0.0003
     71  CZ        -2.7400   30.4020    6.4010 C.ar   78  PHE78      -0.0000
     72  N         -7.8910   33.3410    9.7220 N.3    80  PHE80      -0.1241
     73  CA        -8.8840   34.2380    9.1480 C.3    80  PHE80       0.1605
     74  C        -10.0020   34.3550   10.1690 C.2    80  PHE80       0.2264
     75  O        -10.4630   33.3480   10.7190 O.2    80  PHE80      -0.2867
     76  CB        -9.4610   33.6970    7.8360 C.3    80  PHE80       0.0534
     77  CG        -8.4670   33.6110    6.7140 C.ar   80  PHE80      -0.0203
     78  CD1       -7.8690   32.3920    6.3960 C.ar   80  PHE80      -0.0042
     79  CD2       -8.1180   34.7450    5.9820 C.ar   80  PHE80      -0.0042
     80  CE1       -6.9380   32.3000    5.3700 C.ar   80  PHE80      -0.0003
     81  CE2       -7.1850   34.6750    4.9460 C.ar   80  PHE80      -0.0003
     82  CZ        -6.5890   33.4450    4.6350 C.ar   80  PHE80      -0.0000
     83  N         -0.8890   41.4610   13.3740 N.3   107  ARG107     -0.1245
     84  CA        -1.3050   42.4280   12.3640 C.3   107  ARG107      0.1563
     85  C         -2.4850   41.8740   11.5770 C.2   107  ARG107      0.2260
     86  O         -2.4530   40.7130   11.1460 O.2   107  ARG107     -0.2867
     87  CB        -0.1600   42.7320   11.3920 C.3   107  ARG107      0.0307
     88  CG         0.3310   41.5320   10.6070 C.3   107  ARG107      0.0489
     89  CD         1.4010   41.9400    9.6010 C.3   107  ARG107      0.2205
     90  NE         0.8610   42.6850    8.4640 N.pl3 107  ARG107     -0.0865
     91  CZ         0.3980   42.1220    7.3480 C.cat 107  ARG107      0.5346
     92  NH1        0.4100   40.8000    7.2140 N.pl3 107  ARG107      0.1354
     93  NH2       -0.0730   42.8820    6.3590 N.pl3 107  ARG107      0.1354
     94  N         -5.3180   42.3420    8.3030 N.3   109  ASP109     -0.1225
     95  CA        -5.4110   42.9000    6.9610 C.3   109  ASP109      0.1805
     96  C         -6.7590   42.4660    6.4080 C.2   109  ASP109      0.2598
     97  O         -7.2800   41.4000    6.7680 O.2   109  ASP109     -0.2718
     98  CB        -4.2780   42.3700    6.0660 C.3   109  ASP109      0.1424
     99  CG        -4.3940   42.8440    4.6100 C.2   109  ASP109      0.3668
    100  OD1       -4.6320   44.0540    4.3820 O.co2 109  ASP109     -0.2456
    101  OD2       -4.2380   42.0080    3.6850 O.co2 109  ASP109     -0.2456
    102  N         -7.3380   43.3000    5.5550 N.am  110  TRP110     -0.1962
    103  CA        -8.6170   42.9730    4.9610 C.3   110  TRP110      0.1771
    104  C         -8.3990   41.7870    4.0310 C.2   110  TRP110      0.2619
    105  O         -7.3500   41.6730    3.3870 O.2   110  TRP110     -0.2715
    106  CB        -9.1500   44.1640    4.1650 C.3   110  TRP110      0.0590
    107  CG        -9.6940   45.2590    5.0170 C.ar  110  TRP110      0.0006
    108  CD1       -9.2260   46.5360    5.1080 C.ar  110  TRP110      0.0946
    109  CD2      -10.8550   45.1910    5.8650 C.ar  110  TRP110      0.0152
    110  NE1      -10.0270   47.2760    5.9560 N.ar  110  TRP110     -0.2442
    111  CE2      -11.0310   46.4750    6.4330 C.ar  110  TRP110      0.0810
    112  CE3      -11.7640   44.1710    6.1940 C.ar  110  TRP110      0.0012
    113  CZ2      -12.0760   46.7670    7.3120 C.ar  110  TRP110      0.0191
    114  CZ3      -12.8040   44.4590    7.0630 C.ar  110  TRP110      0.0001
    115  CH2      -12.9530   45.7500    7.6150 C.ar  110  TRP110      0.0015
    116  N         -9.3770   40.8900    3.9660 N.am  111  ASP111     -0.1971
    117  CA        -9.2410   39.7460    3.0910 C.3   111  ASP111      0.1709
    118  C        -10.4320   39.6370    2.1650 C.2   111  ASP111      0.2293
    119  O        -11.5740   39.8130    2.5910 O.2   111  ASP111     -0.2864
    120  CB        -9.0940   38.4670    3.8990 C.3   111  ASP111      0.1436
    121  CG        -8.7440   37.2890    3.0290 C.2   111  ASP111      0.3671
    122  OD1       -9.6540   36.7470    2.3630 O.co2 111  ASP111     -0.2456
    123  OD2       -7.5490   36.9230    2.9910 O.co2 111  ASP111     -0.2456
    124  N         -8.6400   26.1230    0.4730 N.3   117  GLY117     -0.1210
    125  CA        -7.2640   26.1880    0.0060 C.3   117  GLY117      0.1956
    126  C         -6.5140   27.4280    0.4620 C.2   117  GLY117      0.2611
    127  O         -5.2870   27.5210    0.3050 O.2   117  GLY117     -0.2717
    128  N         -7.2510   28.3880    1.0160 N.am  118  ARG118     -0.1979
    129  CA        -6.6530   29.6210    1.5060 C.3   118  ARG118      0.1597
    130  C         -6.0560   29.3940    2.8840 C.2   118  ARG118      0.2287
    131  O         -5.2730   30.2180    3.3590 O.2   118  ARG118     -0.2864
    132  CB        -7.7030   30.7300    1.5920 C.3   118  ARG118      0.0334
    133  CG        -8.2550   31.1550    0.2540 C.3   118  ARG118      0.0492
    134  CD        -7.2740   32.0150   -0.5050 C.3   118  ARG118      0.2205
    135  NE        -7.4010   33.4320   -0.1530 N.pl3 118  ARG118     -0.0865
    136  CZ        -6.8000   34.0210    0.8760 C.cat 118  ARG118      0.5346
    137  NH1       -6.0130   33.3300    1.6830 N.pl3 118  ARG118      0.1354
    138  NH2       -6.9810   35.3140    1.0890 N.pl3 118  ARG118      0.1354
    139  N         -3.9580   27.0470    3.7490 N.3   120  TYR120     -0.1241
    140  CA        -2.6540   26.4120    3.7620 C.3   120  TYR120      0.1605
    141  C         -1.4770   27.3220    3.5010 C.2   120  TYR120      0.2264
    142  O         -1.5200   28.2110    2.6440 O.2   120  TYR120     -0.2867
    143  CB        -2.6390   25.2370    2.7800 C.3   120  TYR120      0.0534
    144  CG        -3.6330   24.1680    3.1540 C.ar  120  TYR120     -0.0201
    145  CD1       -4.7660   23.9170    2.3660 C.ar  120  TYR120     -0.0009
    146  CD2       -3.4820   23.4530    4.3360 C.ar  120  TYR120     -0.0009
    147  CE1       -5.7310   22.9740    2.7620 C.ar  120  TYR120      0.0417
    148  CE2       -4.4310   22.5150    4.7430 C.ar  120  TYR120      0.0417
    149  CZ        -5.5520   22.2810    3.9570 C.ar  120  TYR120      0.1957
    150  OH        -6.4870   21.3680    4.4040 O.3   120  TYR120     -0.2866
    151  N          1.6300   28.6850    1.9100 N.3   122  ARG122     -0.1245
    152  CA         2.0480   28.5470    0.5200 C.3   122  ARG122      0.1563
    153  C          3.5580   28.4030    0.5820 C.2   122  ARG122      0.2260
    154  O          4.2490   28.3050   -0.4340 O.2   122  ARG122     -0.2867
    155  CB         1.6540   29.7890   -0.2710 C.3   122  ARG122      0.0307
    156  CG         0.1550   29.9450   -0.3490 C.3   122  ARG122      0.0489
    157  CD        -0.2640   31.2490   -0.9870 C.3   122  ARG122      0.2205
    158  NE        -1.6980   31.2310   -1.2710 N.pl3 122  ARG122     -0.0865
    159  CZ        -2.3820   32.2620   -1.7510 C.cat 122  ARG122      0.5346
    160  NH1       -1.7670   33.4160   -2.0000 N.pl3 122  ARG122      0.1354
    161  NH2       -3.6810   32.1330   -2.0010 N.pl3 122  ARG122      0.1354
    162  N          7.1120   27.2260    0.6490 N.3   124  ARG124     -0.1245
    163  CA         7.7930   26.1850   -0.0870 C.3   124  ARG124      0.1563
    164  C          7.8940   24.9000    0.7480 C.2   124  ARG124      0.2260
    165  O          7.6960   23.7970    0.2330 O.2   124  ARG124     -0.2867
    166  CB         9.1750   26.7120   -0.4930 C.3   124  ARG124      0.0307
    167  CG         9.2630   28.2760   -0.6190 C.3   124  ARG124      0.0489
    168  CD         7.9240   28.9170   -1.0100 C.3   124  ARG124      0.2205
    169  NE         8.0400   30.1030   -1.8470 N.pl3 124  ARG124     -0.0865
    170  CZ         6.9940   30.7490   -2.3590 C.cat 124  ARG124      0.5346
    171  NH1        5.7480   30.3500   -2.1200 N.pl3 124  ARG124      0.1354
    172  NH2        7.1930   31.7680   -3.1580 N.pl3 124  ARG124      0.1354
    173  N          4.1440   29.0850    6.1770 N.3   128  GLN128     -0.1231
    174  CA         3.9560   30.3350    5.4380 C.3   128  GLN128      0.1698
    175  C          5.2290   30.7750    4.7220 C.2   128  GLN128      0.2592
    176  O          6.3360   30.5870    5.2220 O.2   128  GLN128     -0.2718
    177  CB         3.4840   31.4560    6.3690 C.3   128  GLN128      0.0381
    178  CG         1.9840   31.4900    6.6020 C.3   128  GLN128      0.0905
    179  CD         1.5520   32.7110    7.3830 C.2   128  GLN128      0.2608
    180  OE1        1.5870   32.7320    8.6140 O.2   128  GLN128     -0.2717
    181  NE2        1.1610   33.7490    6.6660 N.am  128  GLN128     -0.0878
    182  N          5.0610   31.3640    3.5440 N.am  129  VAL129     -0.1966
    183  CA         6.1770   31.8490    2.7440 C.3   129  VAL129      0.1727
    184  C          7.0980   32.7170    3.5970 C.2   129  VAL129      0.2616
    185  O          8.3270   32.6270    3.5260 O.2   129  VAL129     -0.2715
    186  CB         5.6560   32.6860    1.5730 C.3   129  VAL129      0.0290
    187  CG1        6.8070   33.3370    0.8300 C.3   129  VAL129      0.0023
    188  CG2        4.8530   31.8040    0.6450 C.3   129  VAL129      0.0023
    189  N          6.4730   33.5620    4.4030 N.am  130  ARG130     -0.1977
    190  CA         7.1710   34.4670    5.2950 C.3   130  ARG130      0.1597
    191  C          8.2680   33.7530    6.0760 C.2   130  ARG130      0.2287
    192  O          9.3540   34.2930    6.2880 O.2   130  ARG130     -0.2864
    193  CB         6.1620   35.0720    6.2740 C.3   130  ARG130      0.0334
    194  CG         6.7780   35.9160    7.3470 C.3   130  ARG130      0.0492
    195  CD         5.7870   36.1780    8.4640 C.3   130  ARG130      0.2205
    196  NE         6.4990   36.4360    9.7100 N.pl3 130  ARG130     -0.0865
    197  CZ         5.9270   36.5230   10.9030 C.cat 130  ARG130      0.5346
    198  NH1        4.6160   36.3770   11.0350 N.pl3 130  ARG130      0.1354
    199  NH2        6.6790   36.7440   11.9730 N.pl3 130  ARG130      0.1354
    200  N         12.1730   32.6590    4.4990 N.3   133  TYR133     -0.1241
    201  CA        13.3360   33.5360    4.5290 C.3   133  TYR133      0.1605
    202  C         13.6320   34.3250    5.8010 C.2   133  TYR133      0.2264
    203  O         14.6090   35.0740    5.8470 O.2   133  TYR133     -0.2867
    204  CB        13.2560   34.4780    3.3310 C.3   133  TYR133      0.0534
    205  CG        12.9560   33.7310    2.0480 C.ar  133  TYR133     -0.0201
    206  CD1       11.6480   33.6150    1.5660 C.ar  133  TYR133     -0.0009
    207  CD2       13.9730   33.0680    1.3600 C.ar  133  TYR133     -0.0009
    208  CE1       11.3640   32.8480    0.4280 C.ar  133  TYR133      0.0417
    209  CE2       13.7010   32.3000    0.2280 C.ar  133  TYR133      0.0417
    210  CZ        12.3960   32.1900   -0.2320 C.ar  133  TYR133      0.1957
    211  OH        12.1270   31.3990   -1.3290 O.3   133  TYR133     -0.2866
@<TRIPOS>BOND
     1    35    34    2
     2    39    38    2
     3    34    33    1
     4    38    40   am
     5    38    37    1
     6    36    33    1
     7    36    37    1
     8    33    32    1
     9    27    26    2
    10    32    26   am
    11    26    25    1
    12    17    18    1
    13    17    14    1
    14    18    19    1
    15    20    19    1
    16    20    21    2
    17   172   170    1
    18    23    21    1
    19    16    15    2
    20    25    24    1
    21    25    28    1
    22    21    22    1
    23    15    24   am
    24    15    14    1
    25    30    29   ar
    26    29    31   ar
    27    29    28    1
    28    14    13    1
    29   170   171    1
    30   170   169    2
    31   161   159    1
    32   160   159    1
    33   169   168    1
    34    13     3   am
    35   159   158    2
    36   211   210    1
    37   158   157    1
    38    47    46    1
    39   168   167    1
    40   157   156    1
    41    41    42    1
    42     4     3    2
    43     3     2    1
    44   167   166    1
    45    46    45    1
    46    46    48    1
    47   134   135    1
    48   134   133    1
    49   166   163    1
    50   154   153    2
    51   156   155    1
    52   155   152    1
    53   210   209   ar
    54   210   208   ar
    55   135   136    2
    56    45    42    1
    57   163   162    1
    58   163   164    1
    59   125   126    1
    60   125   124    1
    61     2     1    1
    62     2     5    1
    63    12    11    1
    64    42    43    1
    65   209   207   ar
    66   165   164    2
    67   133   132    1
    68   127   126    2
    69   208   206   ar
    70    11    10   ar
    71    11     9   ar
    72   126   128   am
    73    10     8   ar
    74   152   153    1
    75   152   151    1
    76   188   186    1
    77     9     7   ar
    78     8     6   ar
    79   187   186    1
    80   136   138    1
    81   136   137    1
    82    43    44    2
    83     7     6   ar
    84     6     5    1
    85   128   129    1
    86   207   205   ar
    87   129   132    1
    88   129   130    1
    89   206   205   ar
    90   186   183    1
    91   205   204    1
    92   118   119    2
    93   118   117    1
    94   122   121   ar
    95   145   147   ar
    96   145   144   ar
    97   142   141    2
    98   183   182    1
    99   183   184    1
   100   147   149   ar
   101   143   144    1
   102   143   140    1
   103   130   131    2
   104   123   121   ar
   105   121   120    1
   106   117   120    1
   107   117   116    1
   108   144   146   ar
   109   204   201    1
   110   105   104    2
   111   141   140    1
   112   185   184    2
   113   182   175   am
   114   184   189   am
   115   101    99   ar
   116   139   140    1
   117   149   150    1
   118   149   148   ar
   119   116   104   am
   120   104   103    1
   121   106   103    1
   122   106   107    1
   123   146   148   ar
   124   100    99   ar
   125   189   190    1
   126   200   201    1
   127   201   202    1
   128    99    98    1
   129    82    81   ar
   130    82    80   ar
   131   175   176    2
   132   175   174    1
   133    81    79   ar
   134   103   102    1
   135   107   108   ar
   136   107   109   ar
   137   108   110   ar
   138   190   191    1
   139   190   193    1
   140    80    78   ar
   141   174   173    1
   142   174   177    1
   143   102    96   am
   144   202   203    2
   145   109   112   ar
   146   109   111   ar
   147   110   111   ar
   148    79    77   ar
   149    98    95    1
   150   191   192    2
   151   112   114   ar
   152   193   194    1
   153    93    91    1
   154   177   178    1
   155    78    77   ar
   156    71    69   ar
   157    71    70   ar
   158    96    97    2
   159    96    95    1
   160   111   113   ar
   161    53    54    1
   162    53    50    1
   163   178   179    1
   164    55    54   ar
   165    55    57   ar
   166   181   179   am
   167    77    76    1
   168    69    67   ar
   169    54    56   ar
   170    57    59   ar
   171    95    94    1
   172    70    68   ar
   173   114   115   ar
   174    56    58   ar
   175    59    60    1
   176    59    58   ar
   177    92    91    1
   178   113   115   ar
   179   194   195    1
   180    91    90    2
   181   179   180    2
   182    67    66   ar
   183    49    50    1
   184    50    51    1
   185    76    73    1
   186    68    66   ar
   187    66    65    1
   188   195   196    1
   189    90    89    1
   190    51    52    2
   191    73    72    1
   192    73    74    1
   193    65    62    1
   194    89    88    1
   195   196   197    2
   196    74    75    2
   197    88    87    1
   198    62    63    1
   199    62    61    1
   200    63    64    2
   201   197   198    1
   202   197   199    1
   203    86    85    2
   204    87    84    1
   205    85    84    1
   206    84    83    1
