@<TRIPOS>MOLECULE
tmp/1n52A00.pdb
 112 112 0 0 0
SMALL
GASTEIGER

@<TRIPOS>ATOM
      1  N          0.5720   55.4650   26.7050 N.3   355  CYS355     -0.1235
      2  CA         1.7060   54.9870   27.4840 C.3   355  CYS355      0.1677
      3  C          2.9660   54.9200   26.6040 C.2   355  CYS355      0.2270
      4  O          4.0800   55.1080   27.0990 O.2   355  CYS355     -0.2867
      5  CB         1.4030   53.6120   28.1000 C.3   355  CYS355      0.0956
      6  SG         0.3570   53.6380   29.6190 S.3   355  CYS355     -0.0801
      7  N          2.3060   55.8930   32.5040 N.3   363  PRO363     -0.2116
      8  CA         2.1800   54.6130   33.2170 C.3   363  PRO363      0.1372
      9  C          2.0090   54.6900   34.7290 C.2   363  PRO363      0.2244
     10  O          1.2280   53.9280   35.3010 O.2   363  PRO363     -0.2868
     11  CB         3.4570   53.8770   32.8270 C.3   363  PRO363      0.0268
     12  CG         3.6700   54.3280   31.4410 C.3   363  PRO363      0.0207
     13  CD         3.4140   55.8220   31.5320 C.3   363  PRO363      0.0892
     14  N         -1.4540   55.9210   35.3890 N.3   366  LEU366     -0.1231
     15  CA        -2.3930   54.8600   35.0360 C.3   366  LEU366      0.1693
     16  C         -2.3480   53.7840   36.1080 C.2   366  LEU366      0.2591
     17  O         -3.3700   53.1820   36.4330 O.2   366  LEU366     -0.2718
     18  CB        -2.0620   54.2820   33.6450 C.3   366  LEU366      0.0284
     19  CG        -2.9400   53.1480   33.0810 C.3   366  LEU366      0.0019
     20  CD1       -4.4240   53.4480   33.2870 C.3   366  LEU366      0.0001
     21  CD2       -2.6390   52.9780   31.6010 C.3   366  LEU366      0.0001
     22  N         -1.1700   53.5740   36.6910 N.am  367  ALA367     -0.1980
     23  CA        -1.0100   52.5710   37.7390 C.3   367  ALA367      0.1597
     24  C         -1.5870   53.0880   39.0520 C.2   367  ALA367      0.2287
     25  O         -1.9880   52.3210   39.9250 O.2   367  ALA367     -0.2864
     26  CB         0.4720   52.2380   37.9190 C.3   367  ALA367      0.0319
     27  N         -5.4860   52.7460   38.6790 N.3   370  THR370     -0.1218
     28  CA        -5.9200   51.3580   38.8100 C.3   370  THR370      0.1862
     29  C         -6.0410   51.0740   40.3080 C.2   370  THR370      0.2287
     30  O         -7.0840   50.6150   40.7930 O.2   370  THR370     -0.2866
     31  CB        -4.8970   50.3840   38.1970 C.3   370  THR370      0.1770
     32  OG1       -4.6270   50.7610   36.8420 O.3   370  THR370     -0.2211
     33  CG2       -5.4540   48.9740   38.2030 C.3   370  THR370      0.0375
     34  N        -11.4750   45.6970   30.9410 N.3   391  TRP391     -0.1227
     35  CA       -10.4240   46.6350   30.5870 C.3   391  TRP391      0.1737
     36  C         -9.0940   46.1880   31.1720 C.2   391  TRP391      0.2595
     37  O         -8.1050   46.0490   30.4690 O.2   391  TRP391     -0.2718
     38  CB       -10.6860   48.0350   31.1430 C.3   391  TRP391      0.0564
     39  CG        -9.4120   48.8410   31.0610 C.ar  391  TRP391      0.0003
     40  CD1       -8.7510   49.2130   29.9150 C.ar  391  TRP391      0.0946
     41  CD2       -8.5480   49.2030   32.1520 C.ar  391  TRP391      0.0152
     42  NE1       -7.5270   49.7720   30.2270 N.ar  391  TRP391     -0.2442
     43  CE2       -7.3810   49.7770   31.5940 C.ar  391  TRP391      0.0810
     44  CE3       -8.6460   49.0930   33.5450 C.ar  391  TRP391      0.0012
     45  CZ2       -6.3250   50.2370   32.3810 C.ar  391  TRP391      0.0191
     46  CZ3       -7.5930   49.5570   34.3270 C.ar  391  TRP391      0.0001
     47  CH2       -6.4450   50.1220   33.7360 C.ar  391  TRP391      0.0015
     48  N         -9.0740   45.9910   32.4830 N.am  392  PHE392     -0.1976
     49  CA        -7.8470   45.6210   33.1660 C.3   392  PHE392      0.1639
     50  C         -7.2380   44.3030   32.7130 C.2   392  PHE392      0.2290
     51  O         -6.0140   44.2100   32.5600 O.2   392  PHE392     -0.2864
     52  CB        -8.0740   45.5950   34.6760 C.3   392  PHE392      0.0560
     53  CG        -6.8030   45.4420   35.4660 C.ar  392  PHE392     -0.0200
     54  CD1       -5.7000   46.2500   35.1880 C.ar  392  PHE392     -0.0042
     55  CD2       -6.6960   44.4850   36.4710 C.ar  392  PHE392     -0.0042
     56  CE1       -4.5120   46.1010   35.8990 C.ar  392  PHE392     -0.0003
     57  CE2       -5.5070   44.3370   37.1830 C.ar  392  PHE392     -0.0003
     58  CZ        -4.4200   45.1430   36.8970 C.ar  392  PHE392     -0.0000
     59  N         -5.8980   44.7670   29.3300 N.3   395  HIS395     -0.1226
     60  CA        -4.7310   45.6220   29.4380 C.3   395  HIS395      0.1752
     61  C         -3.5170   44.7950   29.8770 C.2   395  HIS395      0.2595
     62  O         -2.4320   44.8850   29.2970 O.2   395  HIS395     -0.2718
     63  CB        -5.0380   46.7210   30.4430 C.3   395  HIS395      0.0759
     64  CG        -3.8640   47.5780   30.7790 C.ar  395  HIS395      0.0818
     65  ND1       -3.2050   48.3400   29.8390 N.ar  395  HIS395     -0.2268
     66  CD2       -3.2250   47.7870   31.9520 C.ar  395  HIS395      0.1154
     67  CE1       -2.2060   48.9790   30.4200 C.ar  395  HIS395      0.1986
     68  NE2       -2.1950   48.6600   31.7010 N.ar  395  HIS395     -0.2212
     69  N         -3.7060   43.9850   30.9080 N.am  396  LEU396     -0.1980
     70  CA        -2.6430   43.1240   31.4100 C.3   396  LEU396      0.1596
     71  C         -2.0480   42.2450   30.3210 C.2   396  LEU396      0.2287
     72  O         -0.8250   42.0930   30.2390 O.2   396  LEU396     -0.2864
     73  CB        -3.1850   42.2170   32.4980 C.3   396  LEU396      0.0297
     74  CG        -3.5080   42.8250   33.8540 C.3   396  LEU396      0.0022
     75  CD1       -4.3200   41.8280   34.6580 C.3   396  LEU396      0.0001
     76  CD2       -2.2180   43.1680   34.5750 C.3   396  LEU396      0.0001
     77  N          0.8230   43.5550   28.4600 N.3   399  PHE399     -0.1241
     78  CA         2.0220   43.8470   29.2250 C.3   399  PHE399      0.1605
     79  C          2.4330   42.6160   30.0200 C.2   399  PHE399      0.2264
     80  O          2.7400   42.6990   31.2040 O.2   399  PHE399     -0.2867
     81  CB         1.7510   45.0430   30.1490 C.3   399  PHE399      0.0534
     82  CG         1.4570   46.3160   29.3880 C.ar  399  PHE399     -0.0203
     83  CD1        2.4880   47.0180   28.7680 C.ar  399  PHE399     -0.0042
     84  CD2        0.1450   46.7500   29.2030 C.ar  399  PHE399     -0.0042
     85  CE1        2.2190   48.1360   27.9650 C.ar  399  PHE399     -0.0003
     86  CE2       -0.1380   47.8620   28.4010 C.ar  399  PHE399     -0.0003
     87  CZ         0.8980   48.5560   27.7790 C.ar  399  PHE399     -0.0000
     88  N          1.8350   41.5700   33.9360 N.3   402  ARG402     -0.1231
     89  CA         2.6640   42.0110   35.0440 C.3   402  ARG402      0.1694
     90  C          1.9220   43.0200   35.9060 C.2   402  ARG402      0.2592
     91  O          1.5720   44.1100   35.4600 O.2   402  ARG402     -0.2718
     92  CB         3.9660   42.6220   34.5100 C.3   402  ARG402      0.0321
     93  CG         4.8470   41.6310   33.7410 C.3   402  ARG402      0.0489
     94  CD         5.3000   40.4640   34.6210 C.3   402  ARG402      0.2205
     95  NE         6.1060   40.9060   35.7600 N.pl3 402  ARG402     -0.0865
     96  CZ         7.3050   41.4810   35.6580 C.cat 402  ARG402      0.5346
     97  NH1        7.9650   41.8500   36.7550 N.pl3 402  ARG402      0.1354
     98  NH2        7.8510   41.6850   34.4630 N.pl3 402  ARG402      0.1354
     99  N          1.6710   42.6420   37.1470 N.am  403  TRP403     -0.1976
    100  CA         0.9780   43.5050   38.0700 C.3   403  TRP403      0.1640
    101  C          1.4480   43.1150   39.4710 C.2   403  TRP403      0.2290
    102  O          1.8390   41.9760   39.7040 O.2   403  TRP403     -0.2864
    103  CB        -0.5370   43.3120   37.9250 C.3   403  TRP403      0.0576
    104  CG        -1.3390   44.1160   38.8940 C.ar  403  TRP403      0.0006
    105  CD1       -2.2730   43.6470   39.7630 C.ar  403  TRP403      0.0946
    106  CD2       -1.2480   45.5270   39.1220 C.ar  403  TRP403      0.0152
    107  NE1       -2.7700   44.6730   40.5290 N.ar  403  TRP403     -0.2442
    108  CE2       -2.1580   45.8410   40.1560 C.ar  403  TRP403      0.0810
    109  CE3       -0.4820   46.5600   38.5550 C.ar  403  TRP403      0.0012
    110  CZ2       -2.3270   47.1530   40.6420 C.ar  403  TRP403      0.0191
    111  CZ3       -0.6490   47.8670   39.0370 C.ar  403  TRP403      0.0001
    112  CH2       -1.5660   48.1480   40.0700 C.ar  403  TRP403      0.0015
@<TRIPOS>BOND
     1     3     4    2
     2     3     2    1
     3     1     2    1
     4     2     5    1
     5    87    85   ar
     6    87    86   ar
     7    85    83   ar
     8     5     6    1
     9    86    84   ar
    10    77    78    1
    11    83    82   ar
    12    84    82   ar
    13    78    79    1
    14    78    81    1
    15    62    61    2
    16    59    60    1
    17    82    81    1
    18    60    61    1
    19    60    63    1
    20    65    67   ar
    21    65    64   ar
    22    61    69   am
    23    40    42   ar
    24    40    39   ar
    25    79    80    2
    26    42    43   ar
    27    72    71    2
    28    71    70    1
    29    67    68   ar
    30    63    64    1
    31    37    36    2
    32    35    34    1
    33    35    38    1
    34    35    36    1
    35    64    66   ar
    36    69    70    1
    37    39    38    1
    38    39    41   ar
    39    36    48   am
    40    70    73    1
    41    12    13    1
    42    12    11    1
    43    13     7    1
    44    43    41   ar
    45    43    45   ar
    46    21    19    1
    47    68    66   ar
    48    41    44   ar
    49    45    47   ar
    50    48    49    1
    51    73    74    1
    52     7     8    1
    53    51    50    2
    54    50    49    1
    55    11     8    1
    56    19    20    1
    57    19    18    1
    58    49    52    1
    59     8     9    1
    60    44    46   ar
    61    18    15    1
    62    47    46   ar
    63    93    92    1
    64    93    94    1
    65    74    76    1
    66    74    75    1
    67    88    89    1
    68    98    96    1
    69    92    89    1
    70    94    95    1
    71    52    53    1
    72     9    10    2
    73    15    14    1
    74    15    16    1
    75    89    90    1
    76    54    53   ar
    77    54    56   ar
    78    91    90    2
    79    53    55   ar
    80    96    95    2
    81    96    97    1
    82    56    58   ar
    83    90    99   am
    84    16    17    2
    85    16    22   am
    86    55    57   ar
    87    22    23    1
    88    32    31    1
    89    58    57   ar
    90    99   100    1
    91    23    26    1
    92    23    24    1
    93   103   100    1
    94   103   104    1
    95   100   101    1
    96    31    33    1
    97    31    28    1
    98   109   111   ar
    99   109   106   ar
   100    27    28    1
   101    28    29    1
   102   104   106   ar
   103   104   105   ar
   104   111   112   ar
   105    24    25    2
   106   106   108   ar
   107   101   102    2
   108   105   107   ar
   109   112   110   ar
   110   108   107   ar
   111   108   110   ar
   112    29    30    2
