@<TRIPOS>MOLECULE
tmp/1n5iA00.pdb
 104 99 0 0 0
SMALL
GASTEIGER

@<TRIPOS>ATOM
      1  N         21.8980   16.6590   13.4840 N.3     9  ASP9       -0.1225
      2  CA        22.4090   17.6970   12.6110 C.3     9  ASP9        0.1805
      3  C         21.9590   19.0530   13.1320 C.2     9  ASP9        0.2598
      4  O         20.8170   19.2160   13.5450 O.2     9  ASP9       -0.2718
      5  CB        21.9180   17.4550   11.1880 C.3     9  ASP9        0.1424
      6  CG        22.6680   16.3270   10.5210 C.2     9  ASP9        0.3668
      7  OD1       23.8440   16.5360   10.1770 O.co2   9  ASP9       -0.2456
      8  OD2       22.1040   15.2290   10.3660 O.co2   9  ASP9       -0.2456
      9  N         22.8760   20.0150   13.1390 N.am   10  GLY10      -0.1942
     10  CA        22.5510   21.3430   13.6260 C.3    10  GLY10       0.2014
     11  C         22.7480   21.4860   15.1250 C.2    10  GLY10       0.2639
     12  O         22.4110   22.5180   15.7020 O.2    10  GLY10      -0.2714
     13  N         23.2950   20.4530   15.7620 N.am   11  ALA11      -0.1963
     14  CA        23.5190   20.4850   17.2060 C.3    11  ALA11       0.1728
     15  C         24.6830   21.3830   17.6220 C.2    11  ALA11       0.2617
     16  O         24.7200   21.8610   18.7540 O.2    11  ALA11      -0.2715
     17  CB        23.7490   19.0720   17.7320 C.3    11  ALA11       0.0334
     18  N         25.6260   21.6020   16.7110 N.am   12  GLY12      -0.1940
     19  CA        26.7850   22.4290   17.0080 C.3    12  GLY12       0.2014
     20  C         28.0460   21.6020   17.2090 C.2    12  GLY12       0.2639
     21  O         28.9940   22.0370   17.8710 O.2    12  GLY12      -0.2714
     22  N         28.0660   20.4080   16.6260 N.am   13  LYS13      -0.1963
     23  CA        29.2090   19.5110   16.7730 C.3    13  LYS13       0.1728
     24  C         30.5490   20.0420   16.2590 C.2    13  LYS13       0.2616
     25  O         31.5590   19.9410   16.9540 O.2    13  LYS13      -0.2715
     26  CB        28.8940   18.1640   16.1110 C.3    13  LYS13       0.0311
     27  CG        27.7110   17.4390   16.7440 C.3    13  LYS13       0.0038
     28  CD        27.5310   16.0390   16.1600 C.3    13  LYS13       0.0206
     29  CE        27.2120   16.0720   14.6690 C.3    13  LYS13       0.1093
     30  NZ        25.8890   16.7110   14.3830 N.3    13  LYS13      -0.1314
     31  N         30.5780   20.5970   15.0510 N.am   14  ARG14      -0.1977
     32  CA        31.8410   21.1090   14.5230 C.3    14  ARG14       0.1597
     33  C         32.4350   22.1860   15.4160 C.2    14  ARG14       0.2287
     34  O         33.6480   22.2380   15.6150 O.2    14  ARG14      -0.2864
     35  CB        31.6640   21.6550   13.1030 C.3    14  ARG14       0.0334
     36  CG        32.9570   22.1590   12.4660 C.3    14  ARG14       0.0492
     37  CD        32.5840   22.8870   11.1460 C.3    14  ARG14       0.2205
     38  NE        31.8820   24.1200   11.5310 N.pl3  14  ARG14      -0.0865
     39  CZ        32.5440   25.2930   11.4800 C.cat  14  ARG14       0.5346
     40  NH1       33.7780   25.2880   11.0280 N.pl3  14  ARG14       0.1354
     41  NH2       31.9420   26.3910   11.8750 N.pl3  14  ARG14       0.1354
     42  N         33.2190   12.2910    9.9010 N.3    36  PHE36      -0.1241
     43  CA        32.4660   11.3260    9.1110 C.3    36  PHE36       0.1605
     44  C         31.1230   11.9860    8.8050 C.2    36  PHE36       0.2264
     45  O         30.5660   12.6890    9.6480 O.2    36  PHE36      -0.2867
     46  CB        32.2490   10.0250    9.8990 C.3    36  PHE36       0.0534
     47  CG        33.4800    9.1630    9.9990 C.ar   36  PHE36      -0.0203
     48  CD1       33.9500    8.4690    8.8840 C.ar   36  PHE36      -0.0042
     49  CD2       34.1830    9.0640   11.1970 C.ar   36  PHE36      -0.0042
     50  CE1       35.1100    7.6860    8.9580 C.ar   36  PHE36      -0.0003
     51  CE2       35.3450    8.2860   11.2830 C.ar   36  PHE36      -0.0003
     52  CZ        35.8060    7.5960   10.1580 C.ar   36  PHE36      -0.0000
     53  N         34.2110   13.8360   14.4750 N.3    94  ASP94      -0.1225
     54  CA        32.9570   14.5760   14.3530 C.3    94  ASP94       0.1805
     55  C         32.0230   13.5430   13.7300 C.2    94  ASP94       0.2597
     56  O         32.0160   13.3610   12.5120 O.2    94  ASP94      -0.2718
     57  CB        33.1120   15.7690   13.4100 C.3    94  ASP94       0.1424
     58  CG        31.8910   16.6700   13.4060 C.2    94  ASP94       0.3668
     59  OD1       30.7720   16.1680   13.6350 O.co2  94  ASP94      -0.2456
     60  OD2       32.0510   17.8840   13.1640 O.co2  94  ASP94      -0.2456
     61  N         31.2640   12.8630   14.5870 N.am   95  ARG95      -0.1979
     62  CA        30.3470   11.7870   14.2160 C.3    95  ARG95       0.1597
     63  C         31.1230   10.4810   14.1370 C.2    95  ARG95       0.2287
     64  O         32.2620   10.4540   13.6710 O.2    95  ARG95      -0.2864
     65  CB        29.6700   12.0240   12.8610 C.3    95  ARG95       0.0334
     66  CG        28.4630   12.9350   12.9140 C.3    95  ARG95       0.0492
     67  CD        27.5300   12.6560   11.7440 C.3    95  ARG95       0.2205
     68  NE        26.3910   13.5670   11.7540 N.pl3  95  ARG95      -0.0865
     69  CZ        25.4080   13.5410   12.6490 C.cat  95  ARG95       0.5346
     70  NH1       25.4000   12.6350   13.6220 N.pl3  95  ARG95       0.1354
     71  NH2       24.4440   14.4510   12.5850 N.pl3  95  ARG95       0.1354
     72  N         18.8860   25.6900   12.8420 N.3   149  ARG149     -0.1245
     73  CA        20.2620   25.8500   12.3860 C.3   149  ARG149      0.1563
     74  C         20.4600   25.1660   11.0340 C.2   149  ARG149      0.2260
     75  O         21.1110   25.7160   10.1460 O.2   149  ARG149     -0.2867
     76  CB        21.2330   25.2780   13.4260 C.3   149  ARG149      0.0307
     77  CG        22.7080   25.4610   13.0860 C.3   149  ARG149      0.0489
     78  CD        23.5930   24.9670   14.2230 C.3   149  ARG149      0.2205
     79  NE        23.5410   25.8510   15.3840 N.pl3 149  ARG149     -0.0865
     80  CZ        23.9330   25.5020   16.6050 C.cat 149  ARG149      0.5346
     81  NH1       24.4000   24.2820   16.8250 N.pl3 149  ARG149      0.1354
     82  NH2       23.8670   26.3720   17.6030 N.pl3 149  ARG149      0.1354
     83  N         21.3990   27.2580    7.6420 N.3   153  ARG153     -0.1245
     84  CA        22.6030   26.9240    6.8980 C.3   153  ARG153      0.1563
     85  C         22.2850   26.7790    5.4070 C.2   153  ARG153      0.2260
     86  O         23.0690   27.1940    4.5490 O.2   153  ARG153     -0.2867
     87  CB        23.1980   25.6250    7.4460 C.3   153  ARG153      0.0307
     88  CG        24.7090   25.6320    7.5310 C.3   153  ARG153      0.0489
     89  CD        25.1890   25.3100    8.9430 C.3   153  ARG153      0.2205
     90  NE        24.7600   23.9860    9.3860 N.pl3 153  ARG153     -0.0865
     91  CZ        25.0850   23.4420   10.5550 C.cat 153  ARG153      0.5346
     92  NH1       25.8500   24.1040   11.4120 N.pl3 153  ARG153      0.1354
     93  NH2       24.6440   22.2320   10.8690 N.pl3 153  ARG153      0.1354
     94  N         24.5760   23.6520    0.1170 N.3   160  ARG160     -0.1245
     95  CA        24.2560   23.0430    1.4000 C.3   160  ARG160      0.1563
     96  C         22.7600   22.8510    1.6410 C.2   160  ARG160      0.2260
     97  O         22.2780   23.0680    2.7560 O.2   160  ARG160     -0.2867
     98  CB        24.8520   23.9010    2.5160 C.3   160  ARG160      0.0307
     99  CG        24.3700   23.4520    3.9010 C.3   160  ARG160      0.0489
    100  CD        25.1190   22.2000    4.3220 C.3   160  ARG160      0.2205
    101  NE        25.0110   21.9130    5.7540 N.pl3 160  ARG160     -0.0865
    102  CZ        24.1650   20.9920    6.2370 C.cat 160  ARG160      0.5346
    103  NH1       23.3560   20.2860    5.4070 N.pl3 160  ARG160      0.1354
    104  NH2       24.1380   20.7900    7.5770 N.pl3 160  ARG160      0.1354
@<TRIPOS>BOND
     1    94    95    1
     2    95    96    1
     3    95    98    1
     4    96    97    2
     5    98    99    1
     6    99   100    1
     7   100   101    1
     8    86    85    2
     9    85    84    1
    10   103   102    1
    11   101   102    2
    12   102   104    1
    13    84    87    1
    14    84    83    1
    15    87    88    1
    16    88    89    1
    17    44    43    1
    18    44    45    2
    19    48    50   ar
    20    48    47   ar
    21    89    90    1
    22    50    52   ar
    23    43    46    1
    24    43    42    1
    25    90    91    2
    26    46    47    1
    27    47    49   ar
    28    75    74    2
    29    52    51   ar
    30     7     6   ar
    31     8     6   ar
    32     6     5    1
    33    91    93    1
    34    91    92    1
    35    40    39    1
    36    74    73    1
    37    37    38    1
    38    37    36    1
    39     5     2    1
    40    49    51   ar
    41    39    38    2
    42    39    41    1
    43    67    68    1
    44    67    66    1
    45    68    69    2
    46    73    72    1
    47    73    76    1
    48    36    35    1
    49    56    55    2
    50    71    69    1
    51     2     3    1
    52     2     1    1
    53    69    70    1
    54    65    66    1
    55    65    62    1
    56    77    76    1
    57    77    78    1
    58    35    32    1
    59     3     9   am
    60     3     4    2
    61     9    10    1
    62    60    58   ar
    63    58    57    1
    64    58    59   ar
    65    57    54    1
    66    10    11    1
    67    64    63    2
    68    55    54    1
    69    55    61   am
    70    63    62    1
    71    62    61    1
    72    78    79    1
    73    54    53    1
    74    30    29    1
    75    32    31    1
    76    32    33    1
    77    29    28    1
    78    31    24   am
    79    11    12    2
    80    11    13   am
    81    79    80    2
    82    33    34    2
    83    13    14    1
    84    26    27    1
    85    26    23    1
    86    28    27    1
    87    24    23    1
    88    24    25    2
    89    80    81    1
    90    80    82    1
    91    22    23    1
    92    22    20   am
    93    18    19    1
    94    18    15   am
    95    19    20    1
    96    14    15    1
    97    14    17    1
    98    20    21    2
    99    15    16    2
