@<TRIPOS>MOLECULE
tmp/1n5iA02.pdb
 81 77 0 0 0
SMALL
GASTEIGER

@<TRIPOS>ATOM
      1  N         41.8960   15.5780   14.3240 N.3    33  THR33      -0.1203
      2  CA        40.4480   15.5130   14.1670 C.3    33  THR33       0.1994
      3  C         40.0820   14.8760   12.8290 C.2    33  THR33       0.2618
      4  O         40.7390   15.1100   11.8160 O.2    33  THR33      -0.2717
      5  CB        39.8100   16.9150   14.2390 C.3    33  THR33       0.1784
      6  OG1       40.2690   17.7110   13.1400 O.3    33  THR33      -0.2211
      7  CG2       40.1840   17.6000   15.5380 C.3    33  THR33       0.0376
      8  N         39.0250   14.0730   12.8390 N.am   34  LEU34      -0.1965
      9  CA        38.5540   13.3790   11.6440 C.3    34  LEU34       0.1728
     10  C         37.0270   13.4430   11.6290 C.2    34  LEU34       0.2616
     11  O         36.3860   13.2100   12.6530 O.2    34  LEU34      -0.2715
     12  CB        39.0280   11.9220   11.6910 C.3    34  LEU34       0.0311
     13  CG        38.4300   10.8910   10.7280 C.3    34  LEU34       0.0022
     14  CD1       38.7600   11.2560    9.2990 C.3    34  LEU34       0.0001
     15  CD2       38.9900    9.5100   11.0670 C.3    34  LEU34       0.0001
     16  N         36.4440   13.7590   10.4770 N.am   35  ALA35      -0.1977
     17  CA        34.9920   13.8620   10.3820 C.3    35  ALA35       0.1597
     18  C         34.3520   12.8320    9.4630 C.2    35  ALA35       0.2287
     19  O         34.8730   12.5300    8.3920 O.2    35  ALA35      -0.2864
     20  CB        34.6040   15.2620    9.9210 C.3    35  ALA35       0.0319
     21  N         33.2950   10.8240    5.3490 N.3    38  ARG38      -0.1245
     22  CA        34.5090   11.3330    4.7210 C.3    38  ARG38       0.1563
     23  C         34.2260   11.7050    3.2630 C.2    38  ARG38       0.2260
     24  O         34.7310   11.0670    2.3370 O.2    38  ARG38      -0.2867
     25  CB        35.6170   10.2780    4.7700 C.3    38  ARG38       0.0307
     26  CG        36.0750    9.9060    6.1730 C.3    38  ARG38       0.0489
     27  CD        37.1870    8.8670    6.1000 C.3    38  ARG38       0.2205
     28  NE        36.7510    7.6720    5.3790 N.pl3  38  ARG38      -0.0865
     29  CZ        37.5570    6.8950    4.6630 C.cat  38  ARG38       0.5346
     30  NH1       38.8520    7.1800    4.5680 N.pl3  38  ARG38       0.1354
     31  NH2       37.0660    5.8430    4.0260 N.pl3  38  ARG38       0.1354
     32  N         36.6380   11.7140   -0.1190 N.3    41  GLN41      -0.1245
     33  CA        37.6080   10.6540    0.0830 C.3    41  GLN41       0.1566
     34  C         36.9910    9.2680   -0.0600 C.2    41  GLN41       0.2260
     35  O         37.6450    8.3330   -0.5210 O.2    41  GLN41      -0.2867
     36  CB        38.2220   10.8130    1.4710 C.3    41  GLN41       0.0367
     37  CG        39.6410   10.3220    1.5910 C.3    41  GLN41       0.0905
     38  CD        40.2780   10.7520    2.8950 C.2    41  GLN41       0.2608
     39  OE1       41.4840   10.6050    3.0840 O.2    41  GLN41      -0.2717
     40  NE2       39.4670   11.2860    3.8060 N.am   41  GLN41      -0.0878
     41  N         42.4460    2.1880    9.0670 N.3    79  HIS79      -0.1226
     42  CA        43.8840    2.4460    9.0550 C.3    79  HIS79       0.1752
     43  C         44.1790    3.8710    9.5130 C.2    79  HIS79       0.2596
     44  O         45.0980    4.1060   10.3010 O.2    79  HIS79      -0.2718
     45  CB        44.4610    2.2300    7.6530 C.3    79  HIS79       0.0759
     46  CG        44.5920    0.8270    7.2430 C.ar   79  HIS79       0.0818
     47  ND1       43.6820   -0.0200    6.6420 N.ar   79  HIS79      -0.2268
     48  CD2       45.7790    0.1540    7.4410 C.ar   79  HIS79       0.1154
     49  CE1       44.2960   -1.2170    6.4900 C.ar   79  HIS79       0.1986
     50  NE2       45.5160   -1.0950    6.9450 N.ar   79  HIS79      -0.2212
     51  N         43.3890    4.8190    9.0180 N.am   80  THR80      -0.1953
     52  CA        43.5590    6.2200    9.3790 C.3    80  THR80       0.1897
     53  C         43.3910    6.4200   10.8820 C.2    80  THR80       0.2313
     54  O         44.2300    7.0410   11.5350 O.2    80  THR80      -0.2863
     55  CB        42.5360    7.1110    8.6390 C.3    80  THR80       0.1794
     56  OG1       42.7150    6.9670    7.2260 O.3    80  THR80      -0.2208
     57  CG2       42.7180    8.5710    9.0190 C.3    80  THR80       0.0378
     58  N         46.2050    4.9680   12.9000 N.3    83  GLY83      -0.1210
     59  CA        47.3830    5.7990   12.7180 C.3    83  GLY83       0.1956
     60  C         47.3300    7.0790   13.5330 C.2    83  GLY83       0.2611
     61  O         48.3300    7.4960   14.1270 O.2    83  GLY83      -0.2717
     62  N         46.1610    7.7110   13.5650 N.am   84  LEU84      -0.1979
     63  CA        45.9900    8.9500   14.3160 C.3    84  LEU84       0.1596
     64  C         46.1480    8.7120   15.8130 C.2    84  LEU84       0.2287
     65  O         46.7510    9.5250   16.5150 O.2    84  LEU84      -0.2864
     66  CB        44.6140    9.5600   14.0260 C.3    84  LEU84       0.0297
     67  CG        44.4350   10.1650   12.6320 C.3    84  LEU84       0.0022
     68  CD1       42.9980   10.6050   12.4410 C.3    84  LEU84       0.0001
     69  CD2       45.3820   11.3540   12.4780 C.3    84  LEU84       0.0001
     70  N         48.8850   10.9120   17.8570 N.3    88  TYR88      -0.1241
     71  CA        48.4550   12.0350   18.6890 C.3    88  TYR88       0.1605
     72  C         47.9370   11.5940   20.0490 C.2    88  TYR88       0.2264
     73  O         47.5180   10.4540   20.2170 O.2    88  TYR88      -0.2867
     74  CB        47.3570   12.8340   17.9820 C.3    88  TYR88       0.0534
     75  CG        47.7400   13.3260   16.6060 C.ar   88  TYR88      -0.0201
     76  CD1       47.8890   12.4380   15.5420 C.ar   88  TYR88      -0.0009
     77  CD2       47.9650   14.6810   16.3720 C.ar   88  TYR88      -0.0009
     78  CE1       48.2540   12.8870   14.2760 C.ar   88  TYR88       0.0417
     79  CE2       48.3310   15.1420   15.1140 C.ar   88  TYR88       0.0417
     80  CZ        48.4730   14.2430   14.0700 C.ar   88  TYR88       0.1957
     81  OH        48.8310   14.6980   12.8230 O.3    88  TYR88      -0.2866
@<TRIPOS>BOND
     1    35    34    2
     2    32    33    1
     3    34    33    1
     4    33    36    1
     5    36    37    1
     6    37    38    1
     7    24    23    2
     8    38    39    2
     9    38    40   am
    10    23    22    1
    11    31    29    1
    12    30    29    1
    13    29    28    2
    14    22    25    1
    15    22    21    1
    16    25    26    1
    17    28    27    1
    18    27    26    1
    19    49    47   ar
    20    49    50   ar
    21    47    46   ar
    22    50    48   ar
    23    56    55    1
    24    46    48   ar
    25    46    45    1
    26    45    42    1
    27    19    18    2
    28    55    57    1
    29    55    52    1
    30    51    52    1
    31    51    43   am
    32    42    41    1
    33    42    43    1
    34    14    13    1
    35    52    53    1
    36    18    17    1
    37    43    44    2
    38    20    17    1
    39    17    16    1
    40    16    10   am
    41    13    15    1
    42    13    12    1
    43    53    54    2
    44    10     9    1
    45    10    11    2
    46     9    12    1
    47     9     8    1
    48     4     3    2
    49    68    67    1
    50    69    67    1
    51    67    66    1
    52    59    58    1
    53    59    60    1
    54    81    80    1
    55     3     8   am
    56     3     2    1
    57     6     5    1
    58    60    62   am
    59    60    61    2
    60    62    63    1
    61    66    63    1
    62    80    78   ar
    63    80    79   ar
    64     2     5    1
    65     2     1    1
    66     5     7    1
    67    78    76   ar
    68    63    64    1
    69    79    77   ar
    70    76    75   ar
    71    64    65    2
    72    77    75   ar
    73    75    74    1
    74    70    71    1
    75    74    71    1
    76    71    72    1
    77    72    73    2
