@<TRIPOS>MOLECULE
tmp/1n5lB01.pdb
 78 75 0 0 0
SMALL
GASTEIGER

@<TRIPOS>ATOM
      1  N         33.1160   32.1920   51.6920 N.3     9  ASP9       -0.1225
      2  CA        34.3080   31.4090   51.4190 C.3     9  ASP9        0.1805
      3  C         34.5400   31.3070   49.9070 C.2     9  ASP9        0.2598
      4  O         33.6110   31.0730   49.1440 O.2     9  ASP9       -0.2718
      5  CB        34.1520   30.0140   52.0470 C.3     9  ASP9        0.1424
      6  CG        34.0810   30.0650   53.5660 C.2     9  ASP9        0.3668
      7  OD1       35.0880   30.4580   54.1750 O.co2   9  ASP9       -0.2456
      8  OD2       33.0280   29.7260   54.1530 O.co2   9  ASP9       -0.2456
      9  N         35.7860   31.4950   49.4850 N.am   10  GLY10      -0.1942
     10  CA        36.1130   31.4310   48.0710 C.3    10  GLY10       0.2014
     11  C         35.7390   32.6970   47.3160 C.2    10  GLY10       0.2639
     12  O         35.8010   32.7360   46.0860 O.2    10  GLY10      -0.2714
     13  N         35.3530   33.7400   48.0450 N.am   11  ALA11      -0.1963
     14  CA        34.9680   34.9970   47.4100 C.3    11  ALA11       0.1728
     15  C         36.1540   35.7040   46.7460 C.2    11  ALA11       0.2617
     16  O         35.9740   36.4610   45.7910 O.2    11  ALA11      -0.2715
     17  CB        34.3120   35.9190   48.4320 C.3    11  ALA11       0.0334
     18  N         37.3600   35.4510   47.2500 N.am   12  GLY12      -0.1940
     19  CA        38.5500   36.0770   46.6950 C.3    12  GLY12       0.2014
     20  C         39.0840   37.2150   47.5560 C.2    12  GLY12       0.2639
     21  O         39.8690   38.0420   47.0900 O.2    12  GLY12      -0.2714
     22  N         38.6690   37.2520   48.8190 N.am   13  LYS13      -0.1963
     23  CA        39.0920   38.3010   49.7410 C.3    13  LYS13       0.1728
     24  C         40.6020   38.5240   49.8010 C.2    13  LYS13       0.2616
     25  O         41.0610   39.6660   49.7060 O.2    13  LYS13      -0.2715
     26  CB        38.5520   38.0220   51.1480 C.3    13  LYS13       0.0311
     27  CG        37.0470   38.1790   51.2690 C.3    13  LYS13       0.0038
     28  CD        36.5750   37.9640   52.7000 C.3    13  LYS13       0.0206
     29  CE        36.9610   36.5800   53.2140 C.3    13  LYS13       0.1093
     30  NZ        36.2810   35.4890   52.4610 N.3    13  LYS13      -0.1314
     31  N         41.3690   37.4490   49.9670 N.am   14  ARG14      -0.1963
     32  CA        42.8260   37.5600   50.0280 C.3    14  ARG14       0.1729
     33  C         43.3080   38.4340   48.8750 C.2    14  ARG14       0.2616
     34  O         44.0640   39.3850   49.0760 O.2    14  ARG14      -0.2715
     35  CB        43.5000   36.1920   49.9000 C.3    14  ARG14       0.0348
     36  CG        42.8770   35.0650   50.6980 C.3    14  ARG14       0.0492
     37  CD        43.9550   34.0700   51.1210 C.3    14  ARG14       0.2205
     38  NE        43.4140   32.8870   51.7810 N.pl3  14  ARG14      -0.0865
     39  CZ        43.0130   31.7910   51.1450 C.cat  14  ARG14       0.5346
     40  NH1       43.0920   31.7250   49.8230 N.pl3  14  ARG14       0.1354
     41  NH2       42.5360   30.7580   51.8310 N.pl3  14  ARG14       0.1354
     42  N         42.8560   38.1040   47.6690 N.am   15  THR15      -0.1951
     43  CA        43.2450   38.8470   46.4780 C.3    15  THR15       0.1897
     44  C         42.8390   40.3120   46.5440 C.2    15  THR15       0.2313
     45  O         43.6540   41.1950   46.2830 O.2    15  THR15      -0.2863
     46  CB        42.6500   38.2040   45.2090 C.3    15  THR15       0.1794
     47  OG1       43.2770   36.9340   44.9910 O.3    15  THR15      -0.2208
     48  CG2       42.8730   39.0960   43.9910 C.3    15  THR15       0.0378
     49  N         41.2440   41.1060   56.8020 N.3    94  ASP94      -0.1225
     50  CA        40.6550   40.0740   55.9570 C.3    94  ASP94       0.1805
     51  C         39.7150   39.3500   56.9220 C.2    94  ASP94       0.2597
     52  O         40.1570   38.5320   57.7300 O.2    94  ASP94      -0.2718
     53  CB        41.7550   39.1360   55.4400 C.3    94  ASP94       0.1424
     54  CG        41.2580   38.1720   54.3760 C.2    94  ASP94       0.3668
     55  OD1       42.1080   37.5680   53.6870 O.co2  94  ASP94      -0.2456
     56  OD2       40.0270   38.0090   54.2270 O.co2  94  ASP94      -0.2456
     57  N         38.4280   39.6810   56.8350 N.am   95  ARG95      -0.1979
     58  CA        37.3790   39.1480   57.7140 C.3    95  ARG95       0.1597
     59  C         37.4340   39.8810   59.0550 C.2    95  ARG95       0.2287
     60  O         38.5080   40.2460   59.5260 O.2    95  ARG95      -0.2864
     61  CB        37.5220   37.6380   57.9640 C.3    95  ARG95       0.0334
     62  CG        37.0060   36.7400   56.8480 C.3    95  ARG95       0.0492
     63  CD        36.7550   35.3340   57.3840 C.3    95  ARG95       0.2205
     64  NE        36.2590   34.3960   56.3760 N.pl3  95  ARG95      -0.0865
     65  CZ        35.0890   34.4970   55.7590 C.cat  95  ARG95       0.5346
     66  NH1       34.7310   33.5830   54.8600 N.pl3  95  ARG95       0.1354
     67  NH2       34.2740   35.5100   56.0360 N.pl3  95  ARG95       0.1354
     68  N         40.7250   25.3750   45.3320 N.3   153  ARG153     -0.1245
     69  CA        41.7760   25.7840   46.2500 C.3   153  ARG153      0.1563
     70  C         41.6830   24.9300   47.5070 C.2   153  ARG153      0.2260
     71  O         41.5780   25.4400   48.6200 O.2   153  ARG153     -0.2867
     72  CB        41.6190   27.2680   46.5850 C.3   153  ARG153      0.0307
     73  CG        42.7620   27.8030   47.4480 C.3   153  ARG153      0.0489
     74  CD        42.6510   29.3020   47.6810 C.3   153  ARG153      0.2205
     75  NE        41.4150   29.6530   48.3670 N.pl3 153  ARG153     -0.0865
     76  CZ        40.3810   30.2690   47.8030 C.cat 153  ARG153      0.5346
     77  NH1       40.4200   30.6220   46.5220 N.pl3 153  ARG153      0.1354
     78  NH2       39.2970   30.5190   48.5250 N.pl3 153  ARG153      0.1354
@<TRIPOS>BOND
     1    48    46    1
     2    47    46    1
     3    46    43    1
     4    68    69    1
     5    16    15    2
     6    12    11    2
     7    69    72    1
     8    69    70    1
     9    45    44    2
    10    43    44    1
    11    43    42    1
    12    77    76    1
    13    72    73    1
    14    19    18    1
    15    19    20    1
    16    15    18   am
    17    15    14    1
    18    21    20    2
    19    11    13   am
    20    11    10    1
    21    14    13    1
    22    14    17    1
    23    73    74    1
    24    70    71    2
    25    20    22   am
    26    42    33   am
    27    74    75    1
    28    76    75    2
    29    76    78    1
    30    10     9    1
    31    22    23    1
    32    33    34    2
    33    33    32    1
    34     4     3    2
    35     9     3   am
    36    25    24    2
    37    23    24    1
    38    23    26    1
    39    24    31   am
    40    40    39    1
    41    35    32    1
    42    35    36    1
    43     3     2    1
    44    31    32    1
    45    36    37    1
    46    37    38    1
    47    39    38    2
    48    39    41    1
    49    26    27    1
    50    27    28    1
    51     2     1    1
    52     2     5    1
    53     5     6    1
    54    30    29    1
    55    28    29    1
    56     6     8   ar
    57     6     7   ar
    58    55    54   ar
    59    56    54   ar
    60    54    53    1
    61    66    65    1
    62    53    50    1
    63    65    67    1
    64    65    64    2
    65    50    49    1
    66    50    51    1
    67    64    63    1
    68    57    51   am
    69    57    58    1
    70    62    63    1
    71    62    61    1
    72    51    52    2
    73    58    61    1
    74    58    59    1
    75    59    60    2
