@<TRIPOS>MOLECULE
tmp/1n5qB00.pdb
 172 165 0 0 0
SMALL
GASTEIGER

@<TRIPOS>ATOM
      1  N         37.1160   33.6120   -4.1290 N.3    12  ALA12      -0.1245
      2  CA        35.7670   33.4900   -3.4430 C.3    12  ALA12       0.1562
      3  C         36.0540   32.6310   -2.2260 C.2    12  ALA12       0.2260
      4  O         36.8130   31.6220   -2.2890 O.2    12  ALA12      -0.2867
      5  CB        34.7710   32.8250   -4.3210 C.3    12  ALA12       0.0290
      6  N         33.8850   30.5130    0.4500 N.3    14  VAL14      -0.1245
      7  CA        32.4900   30.0640    0.6320 C.3    14  VAL14       0.1561
      8  C         32.4560   29.1760    1.8670 C.2    14  VAL14       0.2260
      9  O         33.1930   28.1990    1.9470 O.2    14  VAL14      -0.2867
     10  CB        32.0480   29.2510   -0.5980 C.3    14  VAL14       0.0252
     11  CG1       30.5610   28.8760   -0.4190 C.3    14  VAL14       0.0019
     12  CG2       32.2360   30.0160   -1.9070 C.3    14  VAL14       0.0019
     13  N         30.2750   26.7850    4.4560 N.3    16  PHE16      -0.1241
     14  CA        29.0780   25.9080    4.5900 C.3    16  PHE16       0.1605
     15  C         28.9540   25.4800    6.0310 C.2    16  PHE16       0.2264
     16  O         29.8030   24.7240    6.5180 O.2    16  PHE16      -0.2867
     17  CB        29.3450   24.6250    3.7770 C.3    16  PHE16       0.0534
     18  CG        29.5620   24.8360    2.2990 C.ar   16  PHE16      -0.0203
     19  CD1       30.8030   25.0960    1.7890 C.ar   16  PHE16      -0.0042
     20  CD2       28.4640   24.8370    1.4390 C.ar   16  PHE16      -0.0042
     21  CE1       31.0340   25.2950    0.4360 C.ar   16  PHE16      -0.0003
     22  CE2       28.6700   25.0750    0.0800 C.ar   16  PHE16      -0.0003
     23  CZ        29.9390   25.2720   -0.4020 C.ar   16  PHE16      -0.0000
     24  N         35.0940   21.5880  -13.6030 N.3    39  ILE39      -0.1245
     25  CA        35.5220   22.8830  -13.0740 C.3    39  ILE39       0.1561
     26  C         36.9790   23.1280  -13.4470 C.2    39  ILE39       0.2260
     27  O         37.4400   24.2520  -13.6800 O.2    39  ILE39      -0.2867
     28  CB        35.3200   22.8730  -11.5420 C.3    39  ILE39       0.0252
     29  CG1       33.8480   22.6420  -11.1970 C.3    39  ILE39       0.0019
     30  CG2       35.8270   24.1950  -10.9660 C.3    39  ILE39       0.0019
     31  CD1       33.5310   22.6310   -9.6990 C.3    39  ILE39       0.0001
     32  N         39.6780   29.4260  -14.3170 N.3    45  PHE45      -0.1241
     33  CA        39.7380   28.7480  -13.0050 C.3    45  PHE45       0.1605
     34  C         41.1870   28.4590  -12.6350 C.2    45  PHE45       0.2264
     35  O         41.9610   27.9140  -13.4560 O.2    45  PHE45      -0.2867
     36  CB        38.9560   27.4080  -13.0230 C.3    45  PHE45       0.0534
     37  CG        39.1160   26.5510  -11.7880 C.ar   45  PHE45      -0.0203
     38  CD1       38.5010   26.8870  -10.6010 C.ar   45  PHE45      -0.0042
     39  CD2       39.8900   25.3820  -11.8360 C.ar   45  PHE45      -0.0042
     40  CE1       38.6300   26.1250   -9.4540 C.ar   45  PHE45      -0.0003
     41  CE2       40.0250   24.6020  -10.7140 C.ar   45  PHE45      -0.0003
     42  CZ        39.3940   24.9500   -9.5220 C.ar   45  PHE45      -0.0000
     43  N         40.5280   25.3900   -6.2510 N.3    48  ALA48      -0.1245
     44  CA        39.4720   25.4110   -5.2150 C.3    48  ALA48       0.1562
     45  C         39.9850   24.5050   -4.1110 C.2    48  ALA48       0.2260
     46  O         40.2840   23.3330   -4.4180 O.2    48  ALA48      -0.2867
     47  CB        38.1140   24.9910   -5.7170 C.3    48  ALA48       0.0290
     48  N         39.1790   22.8110   -0.3910 N.3    50  TYR50      -0.1241
     49  CA        38.1680   22.7100    0.6650 C.3    50  TYR50       0.1605
     50  C         38.8340   22.3760    1.9890 C.2    50  TYR50       0.2264
     51  O         39.7510   21.5280    2.0520 O.2    50  TYR50      -0.2867
     52  CB        37.1580   21.5700    0.2970 C.3    50  TYR50       0.0534
     53  CG        36.1890   22.0120   -0.7760 C.ar   50  TYR50      -0.0201
     54  CD1       36.5330   22.0060   -2.1340 C.ar   50  TYR50      -0.0009
     55  CD2       34.9290   22.4370   -0.4130 C.ar   50  TYR50      -0.0009
     56  CE1       35.6010   22.4440   -3.0740 C.ar   50  TYR50       0.0417
     57  CE2       33.9980   22.8640   -1.3360 C.ar   50  TYR50       0.0417
     58  CZ        34.3500   22.8570   -2.6700 C.ar   50  TYR50       0.1957
     59  OH        33.4310   23.3170   -3.5890 O.3    50  TYR50      -0.2866
     60  N         35.5990   26.7510    1.4100 N.3    61  ASN61      -0.1240
     61  CA        36.2670   26.6510    0.0990 C.3    61  ASN61       0.1653
     62  C         36.9640   28.0030   -0.1890 C.2    61  ASN61       0.2266
     63  O         36.2840   29.0300   -0.1940 O.2    61  ASN61      -0.2867
     64  CB        35.2110   26.3630   -0.9740 C.3    61  ASN61       0.1155
     65  CG        35.7370   26.4430   -2.4140 C.2    61  ASN61       0.2627
     66  OD1       36.9350   26.4660   -2.6400 O.2    61  ASN61      -0.2716
     67  ND2       34.8500   26.5160   -3.3910 N.am   61  ASN61      -0.0877
     68  N         38.7580   29.7240   -3.1840 N.3    63  ALA63      -0.1245
     69  CA        38.8980   29.4260   -4.6270 C.3    63  ALA63       0.1562
     70  C         39.5890   30.5990   -5.3330 C.2    63  ALA63       0.2260
     71  O         39.2480   31.7630   -5.1070 O.2    63  ALA63      -0.2867
     72  CB        37.4970   29.2570   -5.2680 C.3    63  ALA63       0.0290
     73  N         40.5880   32.4980   -8.9020 N.3    65  TRP65      -0.1241
     74  CA        40.1400   32.7520  -10.2580 C.3    65  TRP65       0.1605
     75  C         41.0370   33.7890  -10.8850 C.2    65  TRP65       0.2264
     76  O         41.5560   34.6490  -10.1670 O.2    65  TRP65      -0.2867
     77  CB        38.6780   33.2800  -10.2620 C.3    65  TRP65       0.0550
     78  CG        37.7540   32.1540   -9.8730 C.ar   65  TRP65       0.0003
     79  CD1       37.4030   31.7870   -8.6060 C.ar   65  TRP65       0.0946
     80  CD2       37.1630   31.2210  -10.7800 C.ar   65  TRP65       0.0152
     81  NE1       36.5760   30.6540   -8.6870 N.ar   65  TRP65      -0.2442
     82  CE2       36.4410   30.3190  -10.0020 C.ar   65  TRP65       0.0810
     83  CE3       37.2250   31.1210  -12.1810 C.ar   65  TRP65       0.0012
     84  CZ2       35.7000   29.2710  -10.5880 C.ar   65  TRP65       0.0191
     85  CZ3       36.4950   30.0630  -12.7680 C.ar   65  TRP65       0.0001
     86  CH2       35.7800   29.1820  -11.9420 C.ar   65  TRP65       0.0015
     87  N         34.9160   34.2140  -13.3280 N.3    71  TYR71      -0.1241
     88  CA        34.0760   33.5320  -12.3930 C.3    71  TYR71       0.1605
     89  C         32.6110   33.7520  -12.7430 C.2    71  TYR71       0.2264
     90  O         31.8300   32.8000  -12.7440 O.2    71  TYR71      -0.2867
     91  CB        34.3200   34.1310  -10.9620 C.3    71  TYR71       0.0534
     92  CG        33.3180   33.6150   -9.9450 C.ar   71  TYR71      -0.0201
     93  CD1       33.5680   32.3690   -9.3700 C.ar   71  TYR71      -0.0009
     94  CD2       32.1970   34.3340   -9.5650 C.ar   71  TYR71      -0.0009
     95  CE1       32.6970   31.8970   -8.4220 C.ar   71  TYR71       0.0417
     96  CE2       31.3060   33.8540   -8.6110 C.ar   71  TYR71       0.0417
     97  CZ        31.5680   32.6080   -8.0710 C.ar   71  TYR71       0.1957
     98  OH        30.7570   32.0440   -7.1210 O.3    71  TYR71      -0.2866
     99  N         31.9580   30.3620  -15.1160 N.3    75  PHE75      -0.1241
    100  CA        31.4670   29.4340  -14.1360 C.3    75  PHE75       0.1605
    101  C         30.0040   29.7490  -13.8160 C.2    75  PHE75       0.2264
    102  O         29.1630   28.9150  -14.0290 O.2    75  PHE75      -0.2867
    103  CB        32.3310   29.4910  -12.8720 C.3    75  PHE75       0.0534
    104  CG        31.9470   28.5740  -11.7300 C.ar   75  PHE75      -0.0203
    105  CD1       32.1380   27.2200  -11.7920 C.ar   75  PHE75      -0.0042
    106  CD2       31.4390   29.1340  -10.5810 C.ar   75  PHE75      -0.0042
    107  CE1       31.8030   26.4220  -10.6950 C.ar   75  PHE75      -0.0003
    108  CE2       31.0790   28.3300   -9.4830 C.ar   75  PHE75      -0.0003
    109  CZ        31.2820   26.9630   -9.5320 C.ar   75  PHE75      -0.0000
    110  N         25.5600   22.1950   -9.2690 N.3    84  LEU84      -0.1231
    111  CA        26.4650   21.9390   -8.1620 C.3    84  LEU84       0.1693
    112  C         25.9760   22.6560   -6.9040 C.2    84  LEU84       0.2591
    113  O         25.9280   22.0710   -5.8170 O.2    84  LEU84      -0.2718
    114  CB        27.8600   22.4550   -8.5610 C.3    84  LEU84       0.0284
    115  CG        28.8570   22.4890   -7.3920 C.3    84  LEU84       0.0019
    116  CD1       29.1600   21.0790   -6.8820 C.3    84  LEU84       0.0001
    117  CD2       30.1110   23.2340   -7.8070 C.3    84  LEU84       0.0001
    118  N         25.5390   23.9140   -7.0780 N.am   85  ARG85      -0.1980
    119  CA        24.9570   24.6710   -5.9690 C.3    85  ARG85       0.1597
    120  C         23.7580   23.9720   -5.3600 C.2    85  ARG85       0.2287
    121  O         23.6720   23.9090   -4.1260 O.2    85  ARG85      -0.2864
    122  CB        24.6310   26.0810   -6.4120 C.3    85  ARG85       0.0334
    123  CG        25.8420   26.9240   -6.0160 C.3    85  ARG85       0.0492
    124  CD        27.0320   26.5680   -6.8990 C.3    85  ARG85       0.2205
    125  NE        27.5790   27.7220   -7.5630 N.pl3  85  ARG85      -0.0865
    126  CZ        27.0180   28.8700   -7.9020 C.cat  85  ARG85       0.5346
    127  NH1       25.7680   29.2460   -7.6770 N.pl3  85  ARG85       0.1354
    128  NH2       27.8000   29.7570   -8.5260 N.pl3  85  ARG85       0.1354
    129  N         25.2010   20.7360   -3.4300 N.3    88  LEU88      -0.1231
    130  CA        25.9130   20.9690   -2.1750 C.3    88  LEU88       0.1693
    131  C         24.9960   21.5440   -1.1010 C.2    88  LEU88       0.2592
    132  O         24.9730   21.0660    0.0360 O.2    88  LEU88      -0.2718
    133  CB        27.1420   21.8790   -2.3100 C.3    88  LEU88       0.0284
    134  CG        28.2660   21.4170   -3.2280 C.3    88  LEU88       0.0019
    135  CD1       29.5340   22.2780   -3.2070 C.3    88  LEU88       0.0001
    136  CD2       28.7170   20.0140   -2.8390 C.3    88  LEU88       0.0001
    137  N         24.2080   22.5440   -1.4890 N.am   89  SER89      -0.1952
    138  CA        23.3090   23.2150   -0.5580 C.3    89  SER89       0.1924
    139  C         22.0490   22.4450   -0.2060 C.2    89  SER89       0.2314
    140  O         21.1380   23.0560    0.3730 O.2    89  SER89      -0.2863
    141  CB        22.9480   24.5940   -1.1150 C.3    89  SER89       0.2116
    142  OG        22.0050   24.5420   -2.1690 O.3    89  SER89      -0.2180
    143  N         22.2890   27.8760    4.6290 N.3    97  PRO97      -0.2103
    144  CA        22.7990   28.1020    3.2980 C.3    97  PRO97       0.1489
    145  C         24.2720   28.5480    3.3630 C.2    97  PRO97       0.2417
    146  O         24.7440   29.0680    4.3640 O.2    97  PRO97      -0.2734
    147  CB        21.9240   29.2490    2.7930 C.3    97  PRO97       0.0282
    148  CG        21.7380   30.0680    4.0340 C.3    97  PRO97       0.0208
    149  CD        21.4580   29.0190    5.0990 C.3    97  PRO97       0.0893
    150  N         25.0130   28.1780    2.3370 N.am   98  PRO98      -0.2729
    151  CA        26.4160   28.5660    2.2070 C.3    98  PRO98       0.1401
    152  C         26.4670   30.0800    2.1750 C.2    98  PRO98       0.2269
    153  O         25.4850   30.7500    1.7850 O.2    98  PRO98      -0.2865
    154  CB        26.8850   27.9730    0.8830 C.3    98  PRO98       0.0296
    155  CG        25.8170   27.0090    0.5020 C.3    98  PRO98       0.0237
    156  CD        24.5330   27.4760    1.1160 C.3    98  PRO98       0.0939
    157  N         28.9830   33.2060    0.8880 N.3   100  ALA100     -0.1245
    158  CA        30.1980   33.4480    0.1240 C.3   100  ALA100      0.1562
    159  C         30.6560   34.8710    0.3770 C.2   100  ALA100      0.2260
    160  O         29.8480   35.8070    0.5210 O.2   100  ALA100     -0.2867
    161  CB        29.8650   33.2840   -1.3710 C.3   100  ALA100      0.0290
    162  N         33.3240   37.5460   -1.5120 N.3   102  PHE102     -0.1241
    163  CA        34.1740   37.7060   -2.7270 C.3   102  PHE102      0.1605
    164  C         35.2700   38.7300   -2.4030 C.2   102  PHE102      0.2264
    165  O         34.9560   39.7160   -1.7680 O.2   102  PHE102     -0.2867
    166  CB        33.3100   38.1350   -3.9370 C.3   102  PHE102      0.0534
    167  CG        32.2790   37.0260   -4.1800 C.ar  102  PHE102     -0.0203
    168  CD1       32.7320   35.8260   -4.7070 C.ar  102  PHE102     -0.0042
    169  CD2       30.9660   37.2200   -3.8210 C.ar  102  PHE102     -0.0042
    170  CE1       31.7840   34.8130   -4.8640 C.ar  102  PHE102     -0.0003
    171  CE2       30.0480   36.1690   -4.0410 C.ar  102  PHE102     -0.0003
    172  CZ        30.4640   34.9820   -4.5480 C.ar  102  PHE102     -0.0000
@<TRIPOS>BOND
     1    99   100    1
     2    32    33    1
     3   100   101    1
     4   100   103    1
     5   102   101    2
     6    27    26    2
     7    24    25    1
     8    35    34    2
     9    26    25    1
    10    87    88    1
    11    25    28    1
    12    36    33    1
    13    36    37    1
    14    33    34    1
    15   103   104    1
    16    85    83   ar
    17    85    86   ar
    18    90    89    2
    19    89    88    1
    20    88    91    1
    21    83    80   ar
    22    86    84   ar
    23    39    37   ar
    24    39    41   ar
    25   105   104   ar
    26   105   107   ar
    27    37    38   ar
    28   104   106   ar
    29    28    29    1
    30    28    30    1
    31    29    31    1
    32    91    92    1
    33    75    74    1
    34    75    76    2
    35    80    82   ar
    36    80    78   ar
    37    41    42   ar
    38   107   109   ar
    39    38    40   ar
    40    84    82   ar
    41   106   108   ar
    42    77    74    1
    43    77    78    1
    44    74    73    1
    45    82    81   ar
    46    92    94   ar
    47    92    93   ar
    48    78    79   ar
    49    94    96   ar
    50   109   108   ar
    51    42    40   ar
    52    93    95   ar
    53   110   111    1
    54    81    79   ar
    55    96    97   ar
    56   114   111    1
    57   114   115    1
    58   128   126    1
    59    95    97   ar
    60   111   112    1
    61    97    98    1
    62   126   127    1
    63   126   125    2
    64   117   115    1
    65   125   124    1
    66   115   116    1
    67   118   112   am
    68   118   119    1
    69   112   113    2
    70   124   123    1
    71   122   123    1
    72   122   119    1
    73    43    44    1
    74   119   120    1
    75    47    44    1
    76   120   121    2
    77    70    71    2
    78    70    69    1
    79    72    69    1
    80    44    45    1
    81   170   168   ar
    82   170   172   ar
    83   168   167   ar
    84    69    68    1
    85   172   171   ar
    86    46    45    2
    87     5     2    1
    88   167   166    1
    89   167   169   ar
    90     1     2    1
    91   171   169   ar
    92   166   163    1
    93    59    58    1
    94     2     3    1
    95   129   130    1
    96    67    65   am
    97   134   135    1
    98   134   136    1
    99   134   133    1
   100    56    58   ar
   101    56    54   ar
   102   163   164    1
   103   163   162    1
   104    58    57   ar
   105    66    65    2
   106    65    64    1
   107   164   165    2
   108   133   130    1
   109     4     3    2
   110   130   131    1
   111   142   141    1
   112    54    53   ar
   113    12    10    1
   114   137   131   am
   115   137   138    1
   116   161   158    1
   117    57    55   ar
   118   141   138    1
   119   131   132    2
   120    64    61    1
   121    53    55   ar
   122    53    52    1
   123    10    11    1
   124    10     7    1
   125   138   139    1
   126    23    22   ar
   127    23    21   ar
   128    48    49    1
   129   139   140    2
   130    63    62    2
   131    62    61    1
   132    22    20   ar
   133    61    60    1
   134   158   159    1
   135   158   157    1
   136    52    49    1
   137   159   160    2
   138    21    19   ar
   139     6     7    1
   140   155   154    1
   141   155   156    1
   142     7     8    1
   143    49    50    1
   144   154   151    1
   145   156   150    1
   146    20    18   ar
   147   153   152    2
   148    19    18   ar
   149     8     9    2
   150    50    51    2
   151   152   151    1
   152   151   150    1
   153    18    17    1
   154   150   145   am
   155   147   144    1
   156   147   148    1
   157   144   145    1
   158   144   143    1
   159   145   146    2
   160    17    14    1
   161   148   149    1
   162    13    14    1
   163    14    15    1
   164   143   149    1
   165    15    16    2
