@<TRIPOS>MOLECULE
tmp/1n5qA00.pdb
 174 164 0 0 0
SMALL
GASTEIGER

@<TRIPOS>ATOM
      1  N         44.5210   29.6380    9.0070 N.3    12  ALA12      -0.1301
      2  CA        43.6590   30.5230    9.7800 C.3    12  ALA12       0.1247
      3  C         43.0350   31.5390    8.8200 C.3    12  ALA12       0.2009
      4  O         43.8190   32.0320    8.0150 O.3    12  ALA12      -0.2188
      5  CB        44.4560   31.2490   10.8690 C.3    12  ALA12       0.0233
      6  N         41.1980   35.0710    8.8680 N.3    14  VAL14      -0.1301
      7  CA        40.8930   36.1400    9.8300 C.3    14  VAL14       0.1246
      8  C         40.1700   37.2540    9.0490 C.3    14  VAL14       0.2009
      9  O         40.8290   37.7390    8.1280 O.3    14  VAL14      -0.2188
     10  CB        42.1570   36.6650   10.5030 C.3    14  VAL14       0.0202
     11  CG1       41.7820   37.7030   11.5710 C.3    14  VAL14       0.0016
     12  CG2       42.8870   35.4950   11.2230 C.3    14  VAL14       0.0016
     13  N         38.7070   41.0940    9.1250 N.3    16  PHE16      -0.1241
     14  CA        38.7120   42.3740    9.8280 C.3    16  PHE16       0.1605
     15  C         37.6020   43.2540    9.2940 C.2    16  PHE16       0.2264
     16  O         37.7180   43.7140    8.1580 O.2    16  PHE16      -0.2867
     17  CB        40.0510   43.1170    9.5620 C.3    16  PHE16       0.0534
     18  CG        41.2760   42.3690   10.0440 C.ar   16  PHE16      -0.0203
     19  CD1       41.8280   41.3340    9.2700 C.ar   16  PHE16      -0.0042
     20  CD2       41.9400   42.7910   11.1770 C.ar   16  PHE16      -0.0042
     21  CE1       42.9990   40.6790    9.7080 C.ar   16  PHE16      -0.0003
     22  CE2       43.0580   42.1480   11.6430 C.ar   16  PHE16      -0.0003
     23  CZ        43.6150   41.1250   10.8700 C.ar   16  PHE16      -0.0000
     24  N         55.1630   43.3560   10.5540 N.3    36  GLN36      -0.1245
     25  CA        55.3210   41.9350   10.7830 C.3    36  GLN36       0.1566
     26  C         56.4710   41.3060   10.0110 C.2    36  GLN36       0.2260
     27  O         56.4740   40.1210    9.7760 O.2    36  GLN36      -0.2867
     28  CB        53.9880   41.2030   10.6080 C.3    36  GLN36       0.0367
     29  CG        53.4210   41.1930    9.2160 C.3    36  GLN36       0.0905
     30  CD        52.0420   40.5220    9.2530 C.2    36  GLN36       0.2608
     31  OE1       51.9040   39.4060    9.7400 O.2    36  GLN36      -0.2717
     32  NE2       51.0100   41.2050    8.7820 N.am   36  GLN36      -0.0878
     33  N         57.6190   37.8400   11.3740 N.3    39  ILE39      -0.1245
     34  CA        56.8930   36.5930   11.1010 C.3    39  ILE39       0.1561
     35  C         57.5240   35.7700    9.9860 C.2    39  ILE39       0.2260
     36  O         57.4210   34.5270    9.9890 O.2    39  ILE39      -0.2867
     37  CB        55.4200   36.8710   10.7260 C.3    39  ILE39       0.0252
     38  CG1       54.5310   35.6710   11.1060 C.3    39  ILE39       0.0019
     39  CG2       55.2190   37.2740    9.2840 C.3    39  ILE39       0.0019
     40  CD1       53.0380   35.8740   10.8020 C.3    39  ILE39       0.0001
     41  N         55.8230   29.0250    9.5470 N.3    45  PHE45      -0.1241
     42  CA        54.9960   30.0560    8.8530 C.3    45  PHE45       0.1605
     43  C         55.1220   29.8430    7.3580 C.2    45  PHE45       0.2264
     44  O         56.2800   29.8580    6.8470 O.2    45  PHE45      -0.2867
     45  CB        55.5040   31.4580    9.2180 C.3    45  PHE45       0.0534
     46  CG        54.7980   32.5300    8.4020 C.ar   45  PHE45      -0.0203
     47  CD1       53.4540   32.7620    8.5650 C.ar   45  PHE45      -0.0042
     48  CD2       55.5200   33.2600    7.4440 C.ar   45  PHE45      -0.0042
     49  CE1       52.8400   33.7630    7.7720 C.ar   45  PHE45      -0.0003
     50  CE2       54.9130   34.2260    6.6910 C.ar   45  PHE45      -0.0003
     51  CZ        53.5540   34.4830    6.8510 C.ar   45  PHE45      -0.0000
     52  N         50.8530   34.6310    4.5260 N.3    48  ALA48      -0.1245
     53  CA        49.6810   35.3830    5.0280 C.3    48  ALA48       0.1562
     54  C         49.2660   36.2820    3.8640 C.2    48  ALA48       0.2260
     55  O         50.0500   37.1590    3.4620 O.2    48  ALA48      -0.2867
     56  CB        49.9070   36.1550    6.2910 C.3    48  ALA48       0.0290
     57  N         46.5780   38.9760    2.2250 N.3    50  TYR50      -0.1241
     58  CA        45.5000   39.8710    2.6360 C.3    50  TYR50       0.1605
     59  C         44.7020   40.2980    1.4140 C.2    50  TYR50       0.2264
     60  O         45.2720   40.5880    0.3490 O.2    50  TYR50      -0.2867
     61  CB        46.0770   41.2000    3.2120 C.3    50  TYR50       0.0534
     62  CG        46.6380   40.9230    4.6000 C.ar   50  TYR50      -0.0201
     63  CD1       47.9210   40.3710    4.7010 C.ar   50  TYR50      -0.0009
     64  CD2       45.9520   41.2000    5.7410 C.ar   50  TYR50      -0.0009
     65  CE1       48.4620   40.0960    5.9420 C.ar   50  TYR50       0.0417
     66  CE2       46.4740   40.9010    6.9930 C.ar   50  TYR50       0.0417
     67  CZ        47.7400   40.3410    7.0770 C.ar   50  TYR50       0.1957
     68  OH        48.2480   40.0670    8.3320 O.3    50  TYR50      -0.2866
     69  N         42.4240   37.8250    5.8270 N.3    61  ASN61      -0.1296
     70  CA        43.7330   37.1850    5.7570 C.3    61  ASN61       0.1339
     71  C         43.6010   35.6470    5.6580 C.3    61  ASN61       0.2014
     72  O         43.0330   35.1240    6.6090 O.3    61  ASN61      -0.2188
     73  CB        44.5070   37.5710    6.9940 C.3    61  ASN61       0.1102
     74  CG        45.8490   36.8950    7.2480 C.2    61  ASN61       0.2623
     75  OD1       46.3500   36.2700    6.3140 O.2    61  ASN61      -0.2716
     76  ND2       46.3640   36.9970    8.4610 N.am   61  ASN61      -0.0877
     77  N         45.8690   32.5480    5.9510 N.3    63  ALA63      -0.1245
     78  CA        47.2800   32.3170    6.3680 C.3    63  ALA63       0.1562
     79  C         47.5850   30.8270    6.4140 C.2    63  ALA63       0.2260
     80  O         46.7700   30.1130    7.0070 O.2    63  ALA63      -0.2867
     81  CB        47.4500   32.9200    7.7290 C.3    63  ALA63       0.0290
     82  N         50.0020   27.5550    7.4590 N.3    65  TRP65      -0.1241
     83  CA        50.9360   27.2170    8.5190 C.3    65  TRP65       0.1605
     84  C         51.2940   25.7360    8.3440 C.2    65  TRP65       0.2264
     85  O         50.4580   24.9780    7.8500 O.2    65  TRP65      -0.2867
     86  CB        50.3510   27.3980    9.9340 C.3    65  TRP65       0.0550
     87  CG        50.3220   28.8630   10.2800 C.ar   65  TRP65       0.0003
     88  CD1       49.2950   29.7220    9.9510 C.ar   65  TRP65       0.0946
     89  CD2       51.3280   29.6070   10.9470 C.ar   65  TRP65       0.0152
     90  NE1       49.6500   30.9660   10.4160 N.ar   65  TRP65      -0.2442
     91  CE2       50.8580   30.9500   11.0230 C.ar   65  TRP65       0.0810
     92  CE3       52.5750   29.3080   11.4630 C.ar   65  TRP65       0.0012
     93  CZ2       51.6120   31.9600   11.6080 C.ar   65  TRP65       0.0191
     94  CZ3       53.3310   30.3220   12.0610 C.ar   65  TRP65       0.0001
     95  CH2       52.8340   31.6350   12.1190 C.ar   65  TRP65       0.0015
     96  N         51.8550   27.0810   14.6220 N.3    71  TYR71      -0.1241
     97  CA        51.0430   28.3070   14.8290 C.3    71  TYR71       0.1605
     98  C         50.9320   28.6440   16.2980 C.2    71  TYR71       0.2264
     99  O         51.0550   29.7890   16.7080 O.2    71  TYR71      -0.2867
    100  CB        49.6450   28.1170   14.3060 C.3    71  TYR71       0.0534
    101  CG        48.6320   29.2250   14.4680 C.ar   71  TYR71      -0.0201
    102  CD1       48.7780   30.4090   13.7480 C.ar   71  TYR71      -0.0009
    103  CD2       47.5300   29.1400   15.3320 C.ar   71  TYR71      -0.0009
    104  CE1       47.8540   31.4240   13.8390 C.ar   71  TYR71       0.0417
    105  CE2       46.6040   30.1600   15.4210 C.ar   71  TYR71       0.0417
    106  CZ        46.7630   31.3040   14.6590 C.ar   71  TYR71       0.1957
    107  OH        45.8730   32.3860   14.6900 O.3    71  TYR71      -0.2866
    108  N         53.8330   31.2890   16.9960 N.3    75  PHE75      -0.1241
    109  CA        53.1430   32.5320   16.7310 C.3    75  PHE75       0.1605
    110  C         52.3410   32.9760   17.9500 C.2    75  PHE75       0.2264
    111  O         52.6250   33.9910   18.5610 O.2    75  PHE75      -0.2867
    112  CB        52.2810   32.4950   15.4480 C.3    75  PHE75       0.0534
    113  CG        51.5980   33.8140   15.1580 C.ar   75  PHE75      -0.0203
    114  CD1       52.2910   34.9250   14.7150 C.ar   75  PHE75      -0.0042
    115  CD2       50.2320   33.9500   15.3250 C.ar   75  PHE75      -0.0042
    116  CE1       51.6360   36.1310   14.5020 C.ar   75  PHE75      -0.0003
    117  CE2       49.5720   35.1380   15.1210 C.ar   75  PHE75      -0.0003
    118  CZ        50.2690   36.2610   14.6760 C.ar   75  PHE75      -0.0000
    119  N         53.0260   38.3870   18.6800 N.3    81  SER81      -0.1217
    120  CA        51.6980   38.2170   18.0510 C.3    81  SER81       0.1889
    121  C         50.7420   39.2560   18.6160 C.2    81  SER81       0.2288
    122  O         49.8310   39.7800   17.9720 O.2    81  SER81      -0.2866
    123  CB        51.1400   36.8130   18.1890 C.3    81  SER81       0.2089
    124  OG        51.0430   36.3930   19.5530 O.3    81  SER81      -0.2183
    125  N         51.4340   42.6670   17.3170 N.3    84  LEU84      -0.1231
    126  CA        50.8810   42.8230   15.9590 C.3    84  LEU84       0.1693
    127  C         49.3880   43.0570   15.9580 C.2    84  LEU84       0.2591
    128  O         48.8360   43.8920   15.2600 O.2    84  LEU84      -0.2718
    129  CB        51.1240   41.5350   15.1860 C.3    84  LEU84       0.0284
    130  CG        50.5590   41.4610   13.7730 C.3    84  LEU84       0.0019
    131  CD1       51.0870   42.6090   12.9560 C.3    84  LEU84       0.0001
    132  CD2       50.9070   40.1110   13.1160 C.3    84  LEU84       0.0001
    133  N         48.6650   42.2820   16.7990 N.am   85  ARG85      -0.1980
    134  CA        47.2220   42.4630   16.9410 C.3    85  ARG85       0.1597
    135  C         46.9300   43.9130   17.3580 C.2    85  ARG85       0.2287
    136  O         46.0190   44.5580   16.8420 O.2    85  ARG85      -0.2864
    137  CB        46.6960   41.5340   18.0680 C.3    85  ARG85       0.0334
    138  CG        45.1690   41.6730   18.1590 C.3    85  ARG85       0.0492
    139  CD        44.6470   41.2540   19.5220 C.3    85  ARG85       0.2205
    140  NE        45.1920   42.0020   20.6290 N.pl3  85  ARG85      -0.0865
    141  CZ        44.9070   43.2460   20.9960 C.cat  85  ARG85       0.5346
    142  NH1       44.0100   43.9400   20.3210 N.pl3  85  ARG85       0.1354
    143  NH2       45.5020   43.8380   22.0430 N.pl3  85  ARG85       0.1354
    144  N         47.3630   46.3360   14.4730 N.3    88  LEU88      -0.1245
    145  CA        46.2560   46.3200   13.5180 C.3    88  LEU88       0.1561
    146  C         44.9620   46.8310   14.1570 C.2    88  LEU88       0.2260
    147  O         44.0750   47.1510   13.3760 O.2    88  LEU88      -0.2867
    148  CB        46.0240   44.9120   12.9560 C.3    88  LEU88       0.0270
    149  CG        47.2630   44.3170   12.2550 C.3    88  LEU88       0.0019
    150  CD1       46.8580   43.0080   11.5830 C.3    88  LEU88       0.0001
    151  CD2       47.8220   45.2840   11.2130 C.3    88  LEU88       0.0001
    152  N         38.7240   41.5270   15.0890 N.3    98  PRO98      -0.2116
    153  CA        38.8480   40.5390   14.0150 C.3    98  PRO98       0.1372
    154  C         38.1920   39.2060   14.3760 C.2    98  PRO98       0.2244
    155  O         38.2400   38.7970   15.5740 O.2    98  PRO98      -0.2868
    156  CB        40.3520   40.2870   13.9170 C.3    98  PRO98       0.0268
    157  CG        40.9990   41.4230   14.5900 C.3    98  PRO98       0.0207
    158  CD        40.0230   41.9390   15.6180 C.3    98  PRO98       0.0892
    159  N         38.1900   34.9960   13.6640 N.3   100  ALA100     -0.1245
    160  CA        39.0860   33.9730   13.1130 C.3   100  ALA100      0.1562
    161  C         38.3380   32.6920   12.8800 C.2   100  ALA100      0.2260
    162  O         37.4130   32.3310   13.6570 O.2   100  ALA100     -0.2867
    163  CB        40.2480   33.6720   14.0770 C.3   100  ALA100      0.0290
    164  N         39.6110   28.6740   12.1880 N.3   102  PHE102     -0.1241
    165  CA        40.7590   27.7410   12.1030 C.3   102  PHE102      0.1605
    166  C         40.3200   26.4400   11.4110 C.2   102  PHE102      0.2264
    167  O         39.2030   25.9610   11.6120 O.2   102  PHE102     -0.2867
    168  CB        41.2820   27.4320   13.4950 C.3   102  PHE102      0.0534
    169  CG        41.6540   28.6880   14.2370 C.ar  102  PHE102     -0.0203
    170  CD1       42.5360   29.5990   13.6830 C.ar  102  PHE102     -0.0042
    171  CD2       41.0520   28.9740   15.4730 C.ar  102  PHE102     -0.0042
    172  CE1       42.8780   30.7760   14.3750 C.ar  102  PHE102     -0.0003
    173  CE2       41.3770   30.1300   16.1710 C.ar  102  PHE102     -0.0003
    174  CZ        42.2850   31.0310   15.6240 C.ar  102  PHE102     -0.0000
@<TRIPOS>BOND
     1    60    59    2
     2    59    58    1
     3    57    58    1
     4    58    61    1
     5    61    62    1
     6    55    54    2
     7    54    53    1
     8    52    53    1
     9    62    63   ar
    10    62    64   ar
    11    63    65   ar
    12    53    56    1
    13    71    70    1
    14    71    72    1
    15    64    66   ar
    16    70    69    1
    17    70    73    1
    18    65    67   ar
    19    77    78    1
    20    75    74    2
    21    78    79    1
    22    78    81    1
    23    79    80    2
    24    50    51   ar
    25    50    48   ar
    26    44    43    2
    27    51    49   ar
    28    66    67   ar
    29    73    74    1
    30    67    68    1
    31    74    76   am
    32    43    42    1
    33    48    46   ar
    34    82    83    1
    35    49    47   ar
    36    85    84    2
    37     4     3    1
    38     9     8    1
    39    16    15    2
    40    84    83    1
    41    46    47   ar
    42    46    45    1
    43    83    86    1
    44    32    30   am
    45     3     2    1
    46    42    45    1
    47    42    41    1
    48     6     7    1
    49     1     2    1
    50     8     7    1
    51    13    14    1
    52    29    30    1
    53    29    28    1
    54    30    31    2
    55    19    21   ar
    56    19    18   ar
    57    39    37    1
    58    15    14    1
    59    17    14    1
    60    17    18    1
    61    21    23   ar
    62    27    26    2
    63     2     5    1
    64     7    10    1
    65    86    87    1
    66    88    87   ar
    67    88    90   ar
    68    35    36    2
    69    35    34    1
    70    26    25    1
    71    18    20   ar
    72    87    89   ar
    73    90    91   ar
    74    10    12    1
    75    10    11    1
    76    24    25    1
    77    28    25    1
    78    37    34    1
    79    37    38    1
    80    40    38    1
    81    23    22   ar
    82    89    91   ar
    83    89    92   ar
    84    91    93   ar
    85    34    33    1
    86    20    22   ar
    87   151   149    1
    88   166   167    2
    89   166   165    1
    90    92    94   ar
    91   150   149    1
    92    93    95   ar
    93    94    95   ar
    94   165   164    1
    95   165   168    1
    96   149   148    1
    97   161   160    1
    98   161   162    2
    99   148   145    1
   100   131   130    1
   101   160   159    1
   102   160   163    1
   103   132   130    1
   104   147   146    2
   105   168   169    1
   106   145   146    1
   107   145   144    1
   108   170   169   ar
   109   170   172   ar
   110   102   104   ar
   111   102   101   ar
   112   130   129    1
   113   104   106   ar
   114   156   153    1
   115   156   157    1
   116   153   154    1
   117   153   152    1
   118   169   171   ar
   119   100   101    1
   120   100    97    1
   121   172   174   ar
   122   154   155    2
   123   101   103   ar
   124   116   118   ar
   125   116   114   ar
   126   157   158    1
   127    96    97    1
   128   106   107    1
   129   106   105   ar
   130   118   117   ar
   131   114   113   ar
   132    97    98    1
   133   152   158    1
   134   117   115   ar
   135   113   115   ar
   136   113   112    1
   137   129   126    1
   138   128   127    2
   139   103   105   ar
   140   112   109    1
   141   171   173   ar
   142   174   173   ar
   143   127   126    1
   144   127   133   am
   145   126   125    1
   146    98    99    2
   147   109   108    1
   148   109   110    1
   149   133   134    1
   150   136   135    2
   151   134   135    1
   152   134   137    1
   153   110   111    2
   154   122   121    2
   155   120   123    1
   156   120   121    1
   157   120   119    1
   158   137   138    1
   159   138   139    1
   160   123   124    1
   161   139   140    1
   162   142   141    1
   163   140   141    2
   164   141   143    1
