@<TRIPOS>MOLECULE
tmp/1n5rA02.pdb
 130 128 0 0 0
SMALL
GASTEIGER

@<TRIPOS>ATOM
      1  N         39.6370   23.1010   17.6770 N.3    72  TYR72      -0.1241
      2  CA        39.4380   24.2920   16.8730 C.3    72  TYR72       0.1605
      3  C         38.1070   24.9350   17.3090 C.2    72  TYR72       0.2264
      4  O         37.1120   24.2400   17.5690 O.2    72  TYR72      -0.2867
      5  CB        39.3860   23.9000   15.3860 C.3    72  TYR72       0.0534
      6  CG        38.8710   24.9910   14.4690 C.ar   72  TYR72      -0.0201
      7  CD1       37.5110   25.0700   14.1550 C.ar   72  TYR72      -0.0009
      8  CD2       39.7330   25.9750   13.9520 C.ar   72  TYR72      -0.0009
      9  CE1       37.0100   26.0830   13.3650 C.ar   72  TYR72       0.0417
     10  CE2       39.2400   27.0110   13.1480 C.ar   72  TYR72       0.0417
     11  CZ        37.8700   27.0590   12.8580 C.ar   72  TYR72       0.1957
     12  OH        37.3380   28.0650   12.0520 O.3    72  TYR72      -0.2866
     13  N         35.0540   27.4820   16.2370 N.3    74  ASP74      -0.1239
     14  CA        34.4690   28.1430   15.0770 C.3    74  ASP74       0.1674
     15  C         34.2430   29.6310   15.2680 C.2    74  ASP74       0.2266
     16  O         33.6250   30.0650   16.2420 O.2    74  ASP74      -0.2867
     17  CB        33.1360   27.5120   14.6680 C.3    74  ASP74       0.1410
     18  CG        32.5730   28.1410   13.3940 C.2    74  ASP74       0.3668
     19  OD1       32.8330   27.6020   12.2890 O.co2  74  ASP74      -0.2456
     20  OD2       31.9100   29.1990   13.4900 O.co2  74  ASP74      -0.2456
     21  N         36.5680   16.5480   15.3030 N.3   124  TYR124     -0.1241
     22  CA        37.5660   17.5940   15.5390 C.3   124  TYR124      0.1605
     23  C         37.0550   18.5550   16.5990 C.2   124  TYR124      0.2264
     24  O         37.7390   19.5040   16.9970 O.2   124  TYR124     -0.2867
     25  CB        37.8850   18.3450   14.2220 C.3   124  TYR124      0.0534
     26  CG        36.7600   19.2470   13.7420 C.ar  124  TYR124     -0.0201
     27  CD1       36.6080   20.5360   14.2570 C.ar  124  TYR124     -0.0009
     28  CD2       35.8170   18.7880   12.8150 C.ar  124  TYR124     -0.0009
     29  CE1       35.5460   21.3450   13.8720 C.ar  124  TYR124      0.0417
     30  CE2       34.7400   19.5930   12.4130 C.ar  124  TYR124      0.0417
     31  CZ        34.6110   20.8670   12.9570 C.ar  124  TYR124      0.1957
     32  OH        33.5120   21.6350   12.6540 O.3   124  TYR124     -0.2866
     33  N         46.3660   22.6400   16.3440 N.3   276  VAL276     -0.1231
     34  CA        45.0410   23.0730   15.8980 C.3   276  VAL276      0.1692
     35  C         45.1570   24.0680   14.7330 C.2   276  VAL276      0.2592
     36  O         44.3910   23.9690   13.7710 O.2   276  VAL276     -0.2718
     37  CB        44.2010   23.6930   17.0880 C.3   276  VAL276      0.0266
     38  CG1       42.8770   24.2750   16.5680 C.3   276  VAL276      0.0020
     39  CG2       43.8940   22.6060   18.1280 C.3   276  VAL276      0.0020
     40  N         46.1170   24.9980   14.8070 N.am  277  ASP277     -0.1974
     41  CA        46.3180   25.9850   13.7450 C.3   277  ASP277      0.1709
     42  C         46.6450   25.4100   12.3520 C.2   277  ASP277      0.2293
     43  O         46.4300   26.0930   11.3520 O.2   277  ASP277     -0.2864
     44  CB        47.4140   26.9820   14.1390 C.3   277  ASP277      0.1436
     45  CG        46.9680   27.9570   15.2470 C.2   277  ASP277      0.3671
     46  OD1       45.7570   27.9920   15.5950 O.co2 277  ASP277     -0.2456
     47  OD2       47.8390   28.6950   15.7770 O.co2 277  ASP277     -0.2456
     48  N         43.5790   21.9400    9.5330 N.3   280  TRP280     -0.1227
     49  CA        42.8550   21.9660    8.2730 C.3   280  TRP280      0.1737
     50  C         43.6970   22.0270    7.0120 C.2   280  TRP280      0.2595
     51  O         43.1720   21.8860    5.9060 O.2   280  TRP280     -0.2718
     52  CB        41.8610   23.1150    8.2860 C.3   280  TRP280      0.0564
     53  CG        40.8720   22.9430    9.3870 C.ar  280  TRP280      0.0003
     54  CD1       40.9380   23.4510   10.6770 C.ar  280  TRP280      0.0946
     55  CD2       39.6880   22.1520    9.3280 C.ar  280  TRP280      0.0152
     56  NE1       39.8560   23.0130   11.4080 N.ar  280  TRP280     -0.2442
     57  CE2       39.0730   22.2170   10.6060 C.ar  280  TRP280      0.0810
     58  CE3       39.0820   21.3920    8.3170 C.ar  280  TRP280      0.0012
     59  CZ2       37.8780   21.5520   10.8920 C.ar  280  TRP280      0.0191
     60  CZ3       37.8950   20.7310    8.5990 C.ar  280  TRP280      0.0001
     61  CH2       37.3040   20.8160    9.8780 C.ar  280  TRP280      0.0015
     62  N         45.0020   22.2010    7.1610 N.am  281  HIS281     -0.1975
     63  CA        45.8480   22.2960    5.9850 C.3   281  HIS281      0.1656
     64  C         46.2860   20.9550    5.4340 C.2   281  HIS281      0.2291
     65  O         47.1070   20.9180    4.5360 O.2   281  HIS281     -0.2864
     66  CB        47.0760   23.1500    6.3030 C.3   281  HIS281      0.0771
     67  CG        46.7390   24.5310    6.7620 C.ar  281  HIS281      0.0820
     68  ND1       47.4540   25.1850    7.7400 N.ar  281  HIS281     -0.2267
     69  CD2       45.7510   25.3780    6.3870 C.ar  281  HIS281      0.1154
     70  CE1       46.9180   26.3730    7.9510 C.ar  281  HIS281      0.1986
     71  NE2       45.8820   26.5150    7.1420 N.ar  281  HIS281     -0.2212
     72  N         43.9850   18.3400    4.3820 N.3   283  LEU283     -0.1245
     73  CA        42.9820   17.6660    3.5360 C.3   283  LEU283      0.1561
     74  C         43.4760   17.6330    2.0970 C.2   283  LEU283      0.2260
     75  O         44.0190   18.6060    1.5990 O.2   283  LEU283     -0.2867
     76  CB        41.6250   18.3710    3.6010 C.3   283  LEU283      0.0270
     77  CG        40.9310   18.2390    4.9580 C.3   283  LEU283      0.0019
     78  CD1       39.7410   19.2180    5.0320 C.3   283  LEU283      0.0001
     79  CD2       40.4960   16.7740    5.1700 C.3   283  LEU283      0.0001
     80  N         41.8240   17.5850   -0.8690 N.3   285  GLN285     -0.1231
     81  CA        41.1690   18.4580   -1.8440 C.3   285  GLN285      0.1698
     82  C         40.3470   19.4910   -1.1210 C.2   285  GLN285      0.2592
     83  O         40.1250   19.4030    0.0850 O.2   285  GLN285     -0.2718
     84  CB        40.2150   17.7170   -2.7870 C.3   285  GLN285      0.0381
     85  CG        40.7880   16.5420   -3.5080 C.3   285  GLN285      0.0905
     86  CD        40.6770   15.2950   -2.6730 C.2   285  GLN285      0.2608
     87  OE1       41.2300   14.2460   -3.0190 O.2   285  GLN285     -0.2717
     88  NE2       39.9470   15.3980   -1.5520 N.am  285  GLN285     -0.0878
     89  N         39.8970   20.4760   -1.8770 N.am  286  GLU286     -0.1966
     90  CA        39.0530   21.5150   -1.3440 C.3   286  GLU286      0.1733
     91  C         37.7430   20.7480   -1.1310 C.2   286  GLU286      0.2617
     92  O         37.2500   20.0620   -2.0400 O.2   286  GLU286     -0.2715
     93  CB        38.8830   22.6180   -2.3880 C.3   286  GLU286      0.0429
     94  CG        37.9800   23.7600   -1.9590 C.3   286  GLU286      0.1163
     95  CD        37.7900   24.7940   -3.0630 C.2   286  GLU286      0.3649
     96  OE1       38.4010   24.6340   -4.1520 O.co2 286  GLU286     -0.2457
     97  OE2       37.0290   25.7660   -2.8380 O.co2 286  GLU286     -0.2457
     98  N         37.1610   20.8580    0.0500 N.am  287  SER287     -0.1950
     99  CA        35.9530   20.0840    0.2780 C.3   287  SER287      0.1924
    100  C         35.1200   20.5410    1.4370 C.2   287  SER287      0.2314
    101  O         35.4770   21.4700    2.1480 O.2   287  SER287     -0.2863
    102  CB        36.3470   18.6230    0.5310 C.3   287  SER287      0.2116
    103  OG        37.2690   18.5470    1.6000 O.3   287  SER287     -0.2180
    104  N         36.9440   15.7670    7.2730 N.3   291  PHE291     -0.1241
    105  CA        37.6800   16.1810    8.4540 C.3   291  PHE291      0.1605
    106  C         39.0540   15.5330    8.4590 C.2   291  PHE291      0.2264
    107  O         39.2130   14.3700    8.1060 O.2   291  PHE291     -0.2867
    108  CB        36.8510   15.8170    9.6790 C.3   291  PHE291      0.0534
    109  CG        35.3680   16.0580    9.4780 C.ar  291  PHE291     -0.0203
    110  CD1       34.8580   17.3610    9.4110 C.ar  291  PHE291     -0.0042
    111  CD2       34.4930   14.9900    9.2880 C.ar  291  PHE291     -0.0042
    112  CE1       33.5110   17.6080    9.1590 C.ar  291  PHE291     -0.0003
    113  CE2       33.1060   15.2250    9.0280 C.ar  291  PHE291     -0.0003
    114  CZ        32.6270   16.5470    8.9670 C.ar  291  PHE291     -0.0000
    115  N         29.9690   26.5620    4.5660 N.3   335  TYR335     -0.1227
    116  CA        31.3520   26.4010    4.9880 C.3   335  TYR335      0.1736
    117  C         32.3240   26.1320    3.8500 C.2   335  TYR335      0.2596
    118  O         33.3770   25.5120    4.0750 O.2   335  TYR335     -0.2718
    119  CB        31.4800   25.2530    6.0080 C.3   335  TYR335      0.0548
    120  CG        31.0540   25.6470    7.3930 C.ar  335  TYR335     -0.0200
    121  CD1       29.7060   25.5660    7.7900 C.ar  335  TYR335     -0.0009
    122  CD2       31.9810   26.2140    8.2770 C.ar  335  TYR335     -0.0009
    123  CE1       29.2910   26.0540    9.0440 C.ar  335  TYR335      0.0417
    124  CE2       31.5820   26.7040    9.5240 C.ar  335  TYR335      0.0417
    125  CZ        30.2390   26.6230    9.9030 C.ar  335  TYR335      0.1957
    126  OH        29.8710   27.1100   11.1370 O.3   335  TYR335     -0.2866
    127  N         32.0000   26.5630    2.6330 N.am  336  GLY336     -0.1957
    128  CA        32.9390   26.3040    1.5580 C.3   336  GLY336      0.1869
    129  C         32.4460   26.2270    0.1280 C.2   336  GLY336      0.2309
    130  O         33.2560   26.0600   -0.7850 O.2   336  GLY336     -0.2863
@<TRIPOS>BOND
     1    96    95   ar
     2    85    84    1
     3    85    86    1
     4    95    97   ar
     5    95    94    1
     6    87    86    2
     7    84    81    1
     8    86    88   am
     9    93    94    1
    10    93    90    1
    11    92    91    2
    12    89    90    1
    13    89    82   am
    14    81    82    1
    15    81    80    1
    16    90    91    1
    17    91    98   am
    18    82    83    2
    19   130   129    2
    20    98    99    1
    21   129   128    1
    22    99   102    1
    23    99   100    1
    24   102   103    1
    25   100   101    2
    26   128   127    1
    27    75    74    2
    28    74    73    1
    29   127   117   am
    30    73    76    1
    31    73    72    1
    32    76    77    1
    33   117   118    2
    34   117   116    1
    35    65    64    2
    36   115   116    1
    37    77    78    1
    38    77    79    1
    39   116   119    1
    40    64    63    1
    41    51    50    2
    42    63    66    1
    43    63    62    1
    44   119   120    1
    45    66    67    1
    46    69    67   ar
    47    69    71   ar
    48    67    68   ar
    49    50    62   am
    50    50    49    1
    51    71    70   ar
    52   104   105    1
    53   120   121   ar
    54   120   122   ar
    55    68    70   ar
    56   121   123   ar
    57   107   106    2
    58    49    52    1
    59    49    48    1
    60   122   124   ar
    61    52    53    1
    62    58    60   ar
    63    58    55   ar
    64   105   106    1
    65   105   108    1
    66    60    61   ar
    67   114   113   ar
    68   114   112   ar
    69   113   111   ar
    70   123   125   ar
    71   112   110   ar
    72   111   109   ar
    73    55    53   ar
    74    55    57   ar
    75    53    54   ar
    76   110   109   ar
    77   109   108    1
    78   124   125   ar
    79    61    59   ar
    80   125   126    1
    81    57    59   ar
    82    57    56   ar
    83    54    56   ar
    84    43    42    2
    85    12    11    1
    86    19    18   ar
    87    42    41    1
    88    30    28   ar
    89    30    31   ar
    90    32    31    1
    91    28    26   ar
    92    11    10   ar
    93    11     9   ar
    94    31    29   ar
    95    10     8   ar
    96     9     7   ar
    97    18    20   ar
    98    18    17    1
    99    26    25    1
   100    26    27   ar
   101    41    44    1
   102    41    40    1
   103    36    35    2
   104    29    27   ar
   105     8     6   ar
   106    44    45    1
   107     7     6   ar
   108    25    22    1
   109     6     5    1
   110    17    14    1
   111    35    40   am
   112    35    34    1
   113    14    15    1
   114    14    13    1
   115    45    46   ar
   116    45    47   ar
   117    15    16    2
   118    21    22    1
   119     5     2    1
   120    22    23    1
   121    34    33    1
   122    34    37    1
   123    38    37    1
   124    23    24    2
   125     2     3    1
   126     2     1    1
   127    37    39    1
   128     3     4    2
