@<TRIPOS>MOLECULE
tmp/1n5sA00.pdb
 168 159 0 0 0
SMALL
GASTEIGER

@<TRIPOS>ATOM
      1  N         44.3220   30.1000    9.5800 N.3    12  ALA12      -0.1245
      2  CA        43.4640   31.0480   10.2930 C.3    12  ALA12       0.1562
      3  C         42.9000   31.9950    9.2110 C.2    12  ALA12       0.2260
      4  O         43.6550   32.4460    8.3280 O.2    12  ALA12      -0.2867
      5  CB        44.2960   31.8010   11.3480 C.3    12  ALA12       0.0290
      6  N         41.0040   35.4780    9.1950 N.3    14  VAL14      -0.1245
      7  CA        40.6950   36.5940   10.0870 C.3    14  VAL14       0.1561
      8  C         39.9490   37.7140    9.3170 C.2    14  VAL14       0.2260
      9  O         40.5230   38.1770    8.3870 O.2    14  VAL14      -0.2867
     10  CB        41.9030   37.2200   10.8100 C.3    14  VAL14       0.0252
     11  CG1       41.4710   38.1720   11.9020 C.3    14  VAL14       0.0019
     12  CG2       42.7240   36.0710   11.4810 C.3    14  VAL14       0.0019
     13  N         38.3200   41.4930    9.3480 N.3    16  PHE16      -0.1241
     14  CA        38.3850   42.7930   10.0010 C.3    16  PHE16       0.1605
     15  C         37.2780   43.6710    9.3990 C.2    16  PHE16       0.2264
     16  O         37.3350   43.9770    8.2200 O.2    16  PHE16      -0.2867
     17  CB        39.7520   43.4570    9.6450 C.3    16  PHE16       0.0534
     18  CG        41.0030   42.7780   10.1490 C.ar   16  PHE16      -0.0203
     19  CD1       41.5490   41.6620    9.5430 C.ar   16  PHE16      -0.0042
     20  CD2       41.6730   43.3100   11.2320 C.ar   16  PHE16      -0.0042
     21  CE1       42.7220   41.0490   10.0220 C.ar   16  PHE16      -0.0003
     22  CE2       42.8380   42.7220   11.7080 C.ar   16  PHE16      -0.0003
     23  CZ        43.3780   41.6130   11.1370 C.ar   16  PHE16      -0.0000
     24  N         54.9500   43.9340   10.5200 N.3    36  GLN36      -0.1196
     25  CA        55.1350   42.5370   10.7580 C.3    36  GLN36       0.1782
     26  C         56.2540   41.9280    9.9350 C.2    36  GLN36       0.2306
     27  O         56.3100   40.7360    9.7290 O.2    36  GLN36      -0.2863
     28  CB        53.8260   41.7490   10.6880 C.2    36  GLN36       0.0051
     29  CG        53.1330   41.7650    9.3600 C.2    36  GLN36       0.0584
     30  CD        51.7670   41.0840    9.3300 C.2    36  GLN36       0.2840
     31  OE1       50.7730   41.6560    8.8370 O.2    36  GLN36      -0.2667
     32  NE2       51.7380   39.8880    9.8790 N.am   36  GLN36      -0.0837
     33  N         57.5110   38.6200   11.3710 N.3    39  ILE39      -0.1245
     34  CA        56.8350   37.3480   11.1960 C.3    39  ILE39       0.1561
     35  C         57.3750   36.5040   10.0600 C.2    39  ILE39       0.2260
     36  O         57.3290   35.2820   10.0800 O.2    39  ILE39      -0.2867
     37  CB        55.3160   37.5770   10.9550 C.3    39  ILE39       0.0252
     38  CG1       54.6120   36.2450   11.3360 C.3    39  ILE39       0.0019
     39  CG2       55.0240   37.9240    9.5250 C.3    39  ILE39       0.0019
     40  CD1       53.1160   36.2690   11.0750 C.3    39  ILE39       0.0001
     41  N         55.7210   29.7060    9.8620 N.3    45  PHE45      -0.1241
     42  CA        54.9510   30.7850    9.2230 C.3    45  PHE45       0.1605
     43  C         55.0580   30.5600    7.7310 C.2    45  PHE45       0.2264
     44  O         56.2530   30.5240    7.2660 O.2    45  PHE45      -0.2867
     45  CB        55.4390   32.2120    9.5430 C.3    45  PHE45       0.0534
     46  CG        54.7160   33.2600    8.6660 C.ar   45  PHE45      -0.0203
     47  CD1       53.3820   33.4920    8.8620 C.ar   45  PHE45      -0.0042
     48  CD2       55.4080   33.9020    7.6680 C.ar   45  PHE45      -0.0042
     49  CE1       52.7030   34.3940    8.0720 C.ar   45  PHE45      -0.0003
     50  CE2       54.7290   34.8520    6.8730 C.ar   45  PHE45      -0.0003
     51  CZ        53.3970   35.0710    7.0820 C.ar   45  PHE45      -0.0000
     52  N         50.6090   35.0960    4.8430 N.3    48  ALA48      -0.1301
     53  CA        49.4160   35.8360    5.3460 C.3    48  ALA48       0.1247
     54  C         48.9200   36.6320    4.1130 C.3    48  ALA48       0.2009
     55  O         49.7370   37.4770    3.7010 O.3    48  ALA48      -0.2188
     56  CB        49.6070   36.6580    6.5600 C.3    48  ALA48       0.0233
     57  N         46.1980   39.2710    2.5030 N.3    50  TYR50      -0.1241
     58  CA        45.1120   40.1850    2.8740 C.3    50  TYR50       0.1605
     59  C         44.2940   40.5520    1.6460 C.2    50  TYR50       0.2264
     60  O         44.8930   40.9420    0.6580 O.2    50  TYR50      -0.2867
     61  CB        45.7420   41.4730    3.4600 C.3    50  TYR50       0.0534
     62  CG        46.3400   41.2530    4.8510 C.ar   50  TYR50      -0.0201
     63  CD1       47.5780   40.6360    4.9330 C.ar   50  TYR50      -0.0009
     64  CD2       45.6250   41.5830    6.0150 C.ar   50  TYR50      -0.0009
     65  CE1       48.1030   40.3170    6.1520 C.ar   50  TYR50       0.0417
     66  CE2       46.1720   41.2570    7.2390 C.ar   50  TYR50       0.0417
     67  CZ        47.4010   40.6380    7.2770 C.ar   50  TYR50       0.1957
     68  OH        48.0040   40.2880    8.4660 O.3    50  TYR50      -0.2866
     69  N         42.1220   38.1770    6.0440 N.3    61  ASN61      -0.1240
     70  CA        43.4460   37.5730    5.9750 C.3    61  ASN61       0.1653
     71  C         43.3210   36.0490    5.9350 C.2    61  ASN61       0.2266
     72  O         42.6490   35.4870    6.8010 O.2    61  ASN61      -0.2867
     73  CB        44.2120   38.0240    7.2630 C.3    61  ASN61       0.1155
     74  CG        45.5450   37.3280    7.4570 C.2    61  ASN61       0.2627
     75  OD1       46.1180   36.7900    6.5350 O.2    61  ASN61      -0.2716
     76  ND2       46.0310   37.3520    8.7160 N.am   61  ASN61      -0.0877
     77  N         45.6850   32.9940    6.3090 N.3    63  ALA63      -0.1245
     78  CA        47.0570   32.7200    6.7520 C.3    63  ALA63       0.1562
     79  C         47.3550   31.2350    6.8640 C.2    63  ALA63       0.2260
     80  O         46.5650   30.4710    7.4520 O.2    63  ALA63      -0.2867
     81  CB        47.1880   33.3170    8.1660 C.3    63  ALA63       0.0290
     82  N         49.8530   28.1120    8.0690 N.3    65  TRP65      -0.1241
     83  CA        50.8740   27.8220    9.0910 C.3    65  TRP65       0.1605
     84  C         51.2390   26.3470    8.9540 C.2    65  TRP65       0.2264
     85  O         50.4350   25.5430    8.4380 O.2    65  TRP65      -0.2867
     86  CB        50.3460   28.1570   10.4830 C.3    65  TRP65       0.0550
     87  CG        50.4130   29.6030   10.8540 C.ar   65  TRP65       0.0003
     88  CD1       49.4010   30.5170   10.5840 C.ar   65  TRP65       0.0946
     89  CD2       51.4810   30.3350   11.4760 C.ar   65  TRP65       0.0152
     90  NE1       49.8300   31.7320   11.0610 N.ar   65  TRP65      -0.2442
     91  CE2       51.0750   31.6760   11.5860 C.ar   65  TRP65       0.0810
     92  CE3       52.7430   29.9960   11.9370 C.ar   65  TRP65       0.0012
     93  CZ2       51.8660   32.6720   12.1420 C.ar   65  TRP65       0.0191
     94  CZ3       53.5740   30.9730   12.4820 C.ar   65  TRP65       0.0001
     95  CH2       53.0960   32.3010   12.5890 C.ar   65  TRP65       0.0015
     96  N         52.0270   27.9060   15.1120 N.3    71  TYR71      -0.1241
     97  CA        51.2330   29.1170   15.2630 C.3    71  TYR71       0.1605
     98  C         51.1820   29.5490   16.7080 C.2    71  TYR71       0.2264
     99  O         51.4510   30.7010   17.0440 O.2    71  TYR71      -0.2867
    100  CB        49.9080   28.9160   14.5230 C.3    71  TYR71       0.0534
    101  CG        48.8790   29.9220   14.9920 C.ar   71  TYR71      -0.0201
    102  CD1       48.6890   31.1500   14.3800 C.ar   71  TYR71      -0.0009
    103  CD2       48.1500   29.6020   16.1470 C.ar   71  TYR71      -0.0009
    104  CE1       47.7680   32.0610   14.8540 C.ar   71  TYR71       0.0417
    105  CE2       47.2320   30.5020   16.6320 C.ar   71  TYR71       0.0417
    106  CZ        47.0380   31.7090   15.9950 C.ar   71  TYR71       0.1957
    107  OH        46.1170   32.5310   16.5660 O.3    71  TYR71      -0.2866
    108  N         53.8690   32.3140   17.0340 N.3    75  PHE75      -0.1241
    109  CA        53.1260   33.5720   16.8860 C.3    75  PHE75       0.1605
    110  C         52.3930   33.9670   18.1380 C.2    75  PHE75       0.2264
    111  O         52.6920   35.0280   18.6940 O.2    75  PHE75      -0.2867
    112  CB        52.1520   33.4650   15.6850 C.3    75  PHE75       0.0534
    113  CG        51.4120   34.7320   15.4150 C.ar   75  PHE75      -0.0203
    114  CD1       52.0830   35.8060   14.8230 C.ar   75  PHE75      -0.0042
    115  CD2       50.0840   34.8970   15.7380 C.ar   75  PHE75      -0.0042
    116  CE1       51.4040   36.9850   14.5770 C.ar   75  PHE75      -0.0003
    117  CE2       49.4010   36.0670   15.4980 C.ar   75  PHE75      -0.0003
    118  CZ        50.0650   37.1390   14.9080 C.ar   75  PHE75      -0.0000
    119  N         51.3440   43.5360   17.1440 N.3    84  LEU84      -0.1231
    120  CA        50.6700   43.5730   15.8560 C.3    84  LEU84       0.1693
    121  C         49.1880   43.8300   15.9780 C.2    84  LEU84       0.2591
    122  O         48.5610   44.6870   15.3320 O.2    84  LEU84      -0.2718
    123  CB        50.9860   42.2730   15.1150 C.3    84  LEU84       0.0284
    124  CG        50.2560   42.1800   13.7630 C.3    84  LEU84       0.0019
    125  CD1       50.7170   43.3200   12.8470 C.3    84  LEU84       0.0001
    126  CD2       50.4920   40.8320   13.1220 C.3    84  LEU84       0.0001
    127  N         48.5440   43.0740   16.8920 N.am   85  ARG85      -0.1980
    128  CA        47.1270   43.3210   17.1370 C.3    85  ARG85       0.1597
    129  C         46.9160   44.7700   17.5230 C.2    85  ARG85       0.2287
    130  O         45.9820   45.3790   16.9990 O.2    85  ARG85      -0.2864
    131  CB        46.6050   42.4040   18.2620 C.3    85  ARG85       0.0334
    132  CG        45.0920   42.5280   18.4280 C.3    85  ARG85       0.0492
    133  CD        44.5590   42.3670   19.8440 C.3    85  ARG85       0.2205
    134  NE        45.0040   43.3520   20.7540 N.pl3  85  ARG85      -0.0865
    135  CZ        45.0280   44.5720   21.2010 C.cat  85  ARG85       0.5346
    136  NH1       44.3100   45.5840   20.6980 N.pl3  85  ARG85       0.1354
    137  NH2       45.8470   44.8500   22.2290 N.pl3  85  ARG85       0.1354
    138  N         47.1580   46.9970   14.3500 N.3    88  LEU88      -0.1301
    139  CA        45.9950   46.9450   13.4490 C.3    88  LEU88       0.1247
    140  C         44.7350   47.4260   14.1330 C.3    88  LEU88       0.2009
    141  O         43.8840   47.8530   13.3670 O.3    88  LEU88      -0.2188
    142  CB        45.7590   45.5030   12.9620 C.3    88  LEU88       0.0217
    143  CG        47.0600   44.9020   12.3380 C.3    88  LEU88       0.0015
    144  CD1       46.6370   43.5230   11.7920 C.3    88  LEU88       0.0000
    145  CD2       47.5860   45.7160   11.1710 C.3    88  LEU88       0.0000
    146  N         38.5470   42.1090   15.2380 N.3    98  PRO98      -0.2116
    147  CA        38.7020   41.0770   14.2420 C.3    98  PRO98       0.1372
    148  C         38.0860   39.7450   14.7280 C.2    98  PRO98       0.2244
    149  O         38.1010   39.4180   15.9270 O.2    98  PRO98      -0.2868
    150  CB        40.2030   40.8790   14.1840 C.3    98  PRO98       0.0268
    151  CG        40.8020   42.1650   14.6290 C.3    98  PRO98       0.0207
    152  CD        39.8450   42.6950   15.6790 C.3    98  PRO98       0.0892
    153  N         38.1160   35.6410   14.0470 N.3   100  ALA100     -0.1245
    154  CA        38.9210   34.5630   13.4720 C.3   100  ALA100      0.1562
    155  C         38.2160   33.2130   13.4010 C.2   100  ALA100      0.2260
    156  O         37.2980   32.8780   14.1920 O.2   100  ALA100     -0.2867
    157  CB        40.1480   34.3710   14.3610 C.3   100  ALA100      0.0290
    158  N         39.5550   29.1880   12.9140 N.3   102  PHE102     -0.1241
    159  CA        40.6730   28.2510   12.7800 C.3   102  PHE102      0.1605
    160  C         40.2860   26.9620   12.0600 C.2   102  PHE102      0.2264
    161  O         39.1520   26.4960   12.3080 O.2   102  PHE102     -0.2867
    162  CB        41.3150   28.0420   14.1400 C.3   102  PHE102      0.0534
    163  CG        41.6980   29.2520   14.9040 C.ar  102  PHE102     -0.0203
    164  CD1       42.7350   30.0690   14.4470 C.ar  102  PHE102     -0.0042
    165  CD2       41.0650   29.6610   16.0540 C.ar  102  PHE102     -0.0042
    166  CE1       43.1450   31.1920   15.1320 C.ar  102  PHE102     -0.0003
    167  CE2       41.4480   30.7500   16.8010 C.ar  102  PHE102     -0.0003
    168  CZ        42.4910   31.5490   16.3180 C.ar  102  PHE102     -0.0000
@<TRIPOS>BOND
     1    60    59    2
     2    59    58    1
     3    57    58    1
     4    58    61    1
     5    61    62    1
     6    55    54    1
     7    54    53    1
     8    52    53    1
     9    62    63   ar
    10    62    64   ar
    11    63    65   ar
    12    53    56    1
    13    71    70    1
    14    71    72    2
    15    70    69    1
    16    70    73    1
    17    64    66   ar
    18    65    67   ar
    19    77    78    1
    20    75    74    2
    21    78    79    1
    22    78    81    1
    23    79    80    2
    24    50    51   ar
    25    50    48   ar
    26    51    49   ar
    27    66    67   ar
    28    73    74    1
    29    44    43    2
    30    67    68    1
    31    74    76   am
    32    48    46   ar
    33    43    42    1
    34    82    83    1
    35    49    47   ar
    36    16    15    2
    37     4     3    2
    38     9     8    2
    39    85    84    2
    40    46    47   ar
    41    46    45    1
    42    31    30    2
    43    84    83    1
    44    83    86    1
    45     6     7    1
    46     3     2    1
    47    42    45    1
    48    42    41    1
    49     8     7    1
    50    30    29    1
    51    30    32   am
    52    13    14    1
    53    29    28    2
    54    15    14    1
    55    39    37    1
    56    19    21   ar
    57    19    18   ar
    58     1     2    1
    59    17    14    1
    60    17    18    1
    61    27    26    2
    62    26    25    1
    63    21    23   ar
    64    35    36    2
    65    35    34    1
    66     7    10    1
    67    18    20   ar
    68     2     5    1
    69    86    87    1
    70    24    25    1
    71    88    87   ar
    72    88    90   ar
    73    28    25    1
    74    10    12    1
    75    10    11    1
    76    87    89   ar
    77    37    34    1
    78    37    38    1
    79    90    91   ar
    80    40    38    1
    81    23    22   ar
    82   145   143    1
    83    34    33    1
    84    20    22   ar
    85    89    91   ar
    86    89    92   ar
    87    91    93   ar
    88   144   143    1
    89    92    94   ar
    90   160   161    2
    91   160   159    1
    92    93    95   ar
    93   143   142    1
    94    94    95   ar
    95   159   158    1
    96   159   162    1
    97   125   124    1
    98   142   139    1
    99   126   124    1
   100   141   140    1
   101   155   154    1
   102   155   156    2
   103   139   140    1
   104   139   138    1
   105   154   153    1
   106   154   157    1
   107   124   123    1
   108   162   163    1
   109   150   147    1
   110   150   151    1
   111   147   148    1
   112   147   146    1
   113   102   104   ar
   114   102   101   ar
   115   164   163   ar
   116   164   166   ar
   117   100   101    1
   118   100    97    1
   119   116   114   ar
   120   116   118   ar
   121   151   152    1
   122   148   149    2
   123   114   113   ar
   124   104   106   ar
   125   163   165   ar
   126   118   117   ar
   127   101   103   ar
   128    96    97    1
   129   123   120    1
   130   166   168   ar
   131   146   152    1
   132    97    98    1
   133   122   121    2
   134   113   112    1
   135   113   115   ar
   136   117   115   ar
   137   112   109    1
   138   120   121    1
   139   120   119    1
   140   121   127   am
   141   106   107    1
   142   106   105   ar
   143   165   167   ar
   144   103   105   ar
   145   168   167   ar
   146    98    99    2
   147   109   108    1
   148   109   110    1
   149   127   128    1
   150   130   129    2
   151   128   129    1
   152   128   131    1
   153   110   111    2
   154   131   132    1
   155   132   133    1
   156   133   134    1
   157   136   135    1
   158   134   135    2
   159   135   137    1
