@<TRIPOS>MOLECULE
tmp/1n5tB00.pdb
 159 151 0 0 0
SMALL
GASTEIGER

@<TRIPOS>ATOM
      1  N         36.8250   33.7680   -3.5280 N.3    12  ALA12      -0.1245
      2  CA        35.5720   33.6280   -2.7580 C.3    12  ALA12       0.1562
      3  C         35.9270   32.7790   -1.5240 C.2    12  ALA12       0.2260
      4  O         36.7450   31.8260   -1.6110 O.2    12  ALA12      -0.2867
      5  CB        34.5250   32.9220   -3.6170 C.3    12  ALA12       0.0290
      6  N         33.8180   30.7080    1.1910 N.3    14  VAL14      -0.1245
      7  CA        32.4740   30.1930    1.3580 C.3    14  VAL14       0.1561
      8  C         32.4410   29.3580    2.6260 C.2    14  VAL14       0.2260
      9  O         33.2670   28.4720    2.7590 O.2    14  VAL14      -0.2867
     10  CB        32.0870   29.2940    0.1510 C.3    14  VAL14       0.0252
     11  CG1       30.6030   28.9270    0.2220 C.3    14  VAL14       0.0019
     12  CG2       32.3900   29.9840   -1.1710 C.3    14  VAL14       0.0019
     13  N         30.3020   26.9720    5.1870 N.3    16  PHE16      -0.1241
     14  CA        29.1290   26.0940    5.3280 C.3    16  PHE16       0.1605
     15  C         28.9480   25.6670    6.7850 C.2    16  PHE16       0.2264
     16  O         29.8590   24.9840    7.2940 O.2    16  PHE16      -0.2867
     17  CB        29.4390   24.8230    4.5020 C.3    16  PHE16       0.0534
     18  CG        29.6280   24.9920    3.0020 C.ar   16  PHE16      -0.0203
     19  CD1       30.8390   25.3680    2.4680 C.ar   16  PHE16      -0.0042
     20  CD2       28.5560   24.7360    2.1410 C.ar   16  PHE16      -0.0042
     21  CE1       30.9960   25.5370    1.0800 C.ar   16  PHE16      -0.0003
     22  CE2       28.7300   24.8820    0.7580 C.ar   16  PHE16      -0.0003
     23  CZ        29.9340   25.2560    0.2430 C.ar   16  PHE16      -0.0000
     24  N         35.0350   21.1340  -12.7360 N.3    39  ILE39      -0.1245
     25  CA        35.5200   22.4400  -12.2310 C.3    39  ILE39       0.1561
     26  C         36.9680   22.7190  -12.5480 C.2    39  ILE39       0.2260
     27  O         37.3840   23.8400  -12.9430 O.2    39  ILE39      -0.2867
     28  CB        35.3720   22.3790  -10.6780 C.3    39  ILE39       0.0252
     29  CG1       33.8670   22.3090  -10.3880 C.3    39  ILE39       0.0019
     30  CG2       35.9510   23.6240  -10.0490 C.3    39  ILE39       0.0019
     31  CD1       33.5730   21.9880   -8.9210 C.3    39  ILE39       0.0001
     32  N         39.4390   29.1780  -13.5390 N.3    45  PHE45      -0.1241
     33  CA        39.4690   28.5510  -12.2230 C.3    45  PHE45       0.1605
     34  C         40.9170   28.3220  -11.8220 C.2    45  PHE45       0.2264
     35  O         41.7360   27.7860  -12.6190 O.2    45  PHE45      -0.2867
     36  CB        38.7360   27.2180  -12.2060 C.3    45  PHE45       0.0534
     37  CG        38.9180   26.3520  -10.9750 C.ar   45  PHE45      -0.0203
     38  CD1       38.2940   26.6610   -9.7690 C.ar   45  PHE45      -0.0042
     39  CD2       39.7400   25.2490  -11.0500 C.ar   45  PHE45      -0.0042
     40  CE1       38.4590   25.8250   -8.6750 C.ar   45  PHE45      -0.0003
     41  CE2       39.9530   24.4400   -9.9420 C.ar   45  PHE45      -0.0003
     42  CZ        39.2820   24.7110   -8.7490 C.ar   45  PHE45      -0.0000
     43  N         40.3490   25.4900   -5.4310 N.3    48  ALA48      -0.1245
     44  CA        39.3620   25.5240   -4.3390 C.3    48  ALA48       0.1562
     45  C         39.9220   24.6590   -3.2050 C.2    48  ALA48       0.2260
     46  O         40.2600   23.4660   -3.3890 O.2    48  ALA48      -0.2867
     47  CB        37.9880   25.1200   -4.8000 C.3    48  ALA48       0.0290
     48  N         39.2690   23.2700    0.5620 N.3    50  TYR50      -0.1241
     49  CA        38.3330   23.0690    1.6260 C.3    50  TYR50       0.1605
     50  C         39.0410   22.7790    2.9460 C.2    50  TYR50       0.2264
     51  O         40.0390   22.0490    3.0220 O.2    50  TYR50      -0.2867
     52  CB        37.4130   21.8790    1.2570 C.3    50  TYR50       0.0534
     53  CG        36.3820   22.2800    0.2200 C.ar   50  TYR50      -0.0201
     54  CD1       36.6670   22.1980   -1.1430 C.ar   50  TYR50      -0.0009
     55  CD2       35.1120   22.6640    0.6180 C.ar   50  TYR50      -0.0009
     56  CE1       35.7170   22.5610   -2.0830 C.ar   50  TYR50       0.0417
     57  CE2       34.1510   23.0080   -0.3060 C.ar   50  TYR50       0.0417
     58  CZ        34.4760   22.9470   -1.6520 C.ar   50  TYR50       0.1957
     59  OH        33.4900   23.2980   -2.5660 O.3    50  TYR50      -0.2866
     60  N         35.6640   27.0320    2.2230 N.3    61  ASN61      -0.1240
     61  CA        36.3670   26.8830    0.9680 C.3    61  ASN61       0.1653
     62  C         37.0280   28.2330    0.6490 C.2    61  ASN61       0.2266
     63  O         36.3200   29.2460    0.5530 O.2    61  ASN61      -0.2867
     64  CB        35.3390   26.5090   -0.1210 C.3    61  ASN61       0.1155
     65  CG        35.8370   26.5550   -1.5500 C.2    61  ASN61       0.2627
     66  OD1       37.0320   26.5570   -1.7960 O.2    61  ASN61      -0.2716
     67  ND2       34.9500   26.5860   -2.5600 N.am   61  ASN61      -0.0877
     68  N         38.6530   29.9280   -2.4140 N.3    63  ALA63      -0.1245
     69  CA        38.7200   29.5820   -3.8500 C.3    63  ALA63       0.1562
     70  C         39.3850   30.7040   -4.6630 C.2    63  ALA63       0.2260
     71  O         39.0120   31.8660   -4.4860 O.2    63  ALA63      -0.2867
     72  CB        37.2660   29.3540   -4.3350 C.3    63  ALA63       0.0290
     73  N         40.2060   32.5500   -8.2730 N.3    65  TRP65      -0.1241
     74  CA        39.7530   32.6800   -9.6420 C.3    65  TRP65       0.1605
     75  C         40.5770   33.7790  -10.3500 C.2    65  TRP65       0.2264
     76  O         40.9970   34.7660   -9.6970 O.2    65  TRP65      -0.2867
     77  CB        38.2940   33.1330   -9.7020 C.3    65  TRP65       0.0550
     78  CG        37.3830   32.0840   -9.1010 C.ar   65  TRP65       0.0003
     79  CD1       37.0950   31.9080   -7.7940 C.ar   65  TRP65       0.0946
     80  CD2       36.7900   30.9810   -9.8060 C.ar   65  TRP65       0.0152
     81  NE1       36.2880   30.8150   -7.6430 N.ar   65  TRP65      -0.2442
     82  CE2       36.0730   30.2420   -8.8850 C.ar   65  TRP65       0.0810
     83  CE3       36.7220   30.6130  -11.1630 C.ar   65  TRP65       0.0012
     84  CZ2       35.3280   29.1000   -9.2080 C.ar   65  TRP65       0.0191
     85  CZ3       35.9470   29.5070  -11.5040 C.ar   65  TRP65       0.0001
     86  CH2       35.2810   28.7770  -10.5320 C.ar   65  TRP65       0.0015
     87  N         34.2500   33.4010  -12.1950 N.3    71  TYR71      -0.1241
     88  CA        33.4370   32.7930  -11.1930 C.3    71  TYR71       0.1605
     89  C         31.9530   32.8960  -11.5270 C.2    71  TYR71       0.2264
     90  O         31.2610   31.8620  -11.4360 O.2    71  TYR71      -0.2867
     91  CB        33.6760   33.5280   -9.8240 C.3    71  TYR71       0.0534
     92  CG        32.6700   33.1110   -8.7910 C.ar   71  TYR71      -0.0201
     93  CD1       32.7130   31.8430   -8.1860 C.ar   71  TYR71      -0.0009
     94  CD2       31.6970   33.9970   -8.3800 C.ar   71  TYR71      -0.0009
     95  CE1       31.7610   31.4460   -7.2480 C.ar   71  TYR71       0.0417
     96  CE2       30.7730   33.6410   -7.4070 C.ar   71  TYR71       0.0417
     97  CZ        30.8050   32.3720   -6.8690 C.ar   71  TYR71       0.1957
     98  OH        29.8650   32.0550   -5.9060 O.3    71  TYR71      -0.2866
     99  N         31.8310   29.5420  -14.3780 N.3    75  PHE75      -0.1241
    100  CA        31.3970   28.5850  -13.3910 C.3    75  PHE75       0.1605
    101  C         29.8980   28.6940  -13.1270 C.2    75  PHE75       0.2264
    102  O         29.1560   27.7300  -13.3450 O.2    75  PHE75      -0.2867
    103  CB        32.1950   28.7780  -12.0690 C.3    75  PHE75       0.0534
    104  CG        31.8030   27.8660  -10.9370 C.ar   75  PHE75      -0.0203
    105  CD1       32.0250   26.5090  -11.0230 C.ar   75  PHE75      -0.0042
    106  CD2       31.2580   28.3890   -9.7700 C.ar   75  PHE75      -0.0042
    107  CE1       31.7070   25.6540   -9.9730 C.ar   75  PHE75      -0.0003
    108  CE2       30.9140   27.5590   -8.7250 C.ar   75  PHE75      -0.0003
    109  CZ        31.1640   26.1870   -8.8250 C.ar   75  PHE75      -0.0000
    110  N         25.6420   21.1720   -8.4230 N.3    84  LEU84      -0.1231
    111  CA        26.4920   21.0590   -7.2500 C.3    84  LEU84       0.1693
    112  C         25.9250   21.8580   -6.0790 C.2    84  LEU84       0.2591
    113  O         25.8330   21.3290   -4.9590 O.2    84  LEU84      -0.2718
    114  CB        27.8680   21.6340   -7.6010 C.3    84  LEU84       0.0284
    115  CG        28.8830   21.8510   -6.4790 C.3    84  LEU84       0.0019
    116  CD1       29.2330   20.5650   -5.7470 C.3    84  LEU84       0.0001
    117  CD2       30.1180   22.5480   -7.0230 C.3    84  LEU84       0.0001
    118  N         25.4960   23.1030   -6.3300 N.am   85  ARG85      -0.1980
    119  CA        24.9040   23.8690   -5.2080 C.3    85  ARG85       0.1597
    120  C         23.7580   23.1630   -4.5100 C.2    85  ARG85       0.2287
    121  O         23.6880   23.0380   -3.2750 O.2    85  ARG85      -0.2864
    122  CB        24.6290   25.2690   -5.7630 C.3    85  ARG85       0.0334
    123  CG        25.9700   26.0360   -5.7600 C.3    85  ARG85       0.0492
    124  CD        25.9820   27.2140   -6.7160 C.3    85  ARG85       0.2205
    125  NE        27.0490   28.1510   -6.4580 N.pl3  85  ARG85      -0.0865
    126  CZ        27.5500   29.1510   -7.1610 C.cat  85  ARG85       0.5346
    127  NH1       27.1450   29.4790   -8.3890 N.pl3  85  ARG85       0.1354
    128  NH2       28.5280   29.8680   -6.6150 N.pl3  85  ARG85       0.1354
    129  N         24.9210   20.1540   -2.2830 N.3    88  LEU88      -0.1245
    130  CA        25.5980   20.5810   -1.0580 C.3    88  LEU88       0.1561
    131  C         24.5540   21.0540   -0.0620 C.2    88  LEU88       0.2260
    132  O         24.7420   20.7960    1.1180 O.2    88  LEU88      -0.2867
    133  CB        26.6060   21.7070   -1.3200 C.3    88  LEU88       0.0270
    134  CG        27.8620   21.3100   -2.0990 C.3    88  LEU88       0.0019
    135  CD1       28.7850   22.4980   -2.3400 C.3    88  LEU88       0.0001
    136  CD2       28.6150   20.1820   -1.4130 C.3    88  LEU88       0.0001
    137  N         25.0400   28.1580    2.9640 N.2    98  PRO98      -0.2584
    138  CA        26.3970   28.6210    2.9050 C.3    98  PRO98       0.1895
    139  C         26.4170   30.1290    2.7590 C.2    98  PRO98       0.2359
    140  O         25.4900   30.7090    2.1760 O.2    98  PRO98      -0.2858
    141  CB        26.9970   28.0460    1.6000 C.2    98  PRO98       0.0071
    142  CG        25.9090   27.2970    0.9530 C.2    98  PRO98       0.0180
    143  CD        24.7100   27.2260    1.8610 C.2    98  PRO98       0.0937
    144  N         28.8670   33.2240    1.3880 N.3   100  ALA100     -0.1245
    145  CA        30.1150   33.5280    0.6990 C.3   100  ALA100      0.1562
    146  C         30.4830   34.9780    0.9580 C.2   100  ALA100      0.2260
    147  O         29.6320   35.8800    1.0690 O.2   100  ALA100     -0.2867
    148  CB        29.8300   33.2320   -0.7680 C.3   100  ALA100      0.0290
    149  N         33.1220   37.7560   -1.0500 N.3   102  PHE102     -0.1298
    150  CA        33.9130   37.8940   -2.2860 C.3   102  PHE102      0.1290
    151  C         34.9700   38.9730   -2.0000 C.3   102  PHE102      0.2013
    152  O         34.5390   39.9280   -1.3370 O.3   102  PHE102     -0.2188
    153  CB        32.9600   38.3020   -3.4210 C.3   102  PHE102      0.0480
    154  CG        31.9390   37.1820   -3.6370 C.ar  102  PHE102     -0.0206
    155  CD1       32.3980   35.9070   -4.0360 C.ar  102  PHE102     -0.0042
    156  CD2       30.6220   37.3600   -3.3610 C.ar  102  PHE102     -0.0042
    157  CE1       31.5020   34.8610   -4.1630 C.ar  102  PHE102     -0.0003
    158  CE2       29.7380   36.2840   -3.5090 C.ar  102  PHE102     -0.0003
    159  CZ        30.1310   35.0510   -3.9340 C.ar  102  PHE102     -0.0000
@<TRIPOS>BOND
     1    99   100    1
     2    32    33    1
     3   100   101    1
     4   100   103    1
     5   102   101    2
     6    27    26    2
     7    24    25    1
     8    35    34    2
     9    26    25    1
    10    25    28    1
    11    33    36    1
    12    33    34    1
    13    36    37    1
    14    87    88    1
    15   103   104    1
    16    89    90    2
    17    89    88    1
    18    85    83   ar
    19    85    86   ar
    20    88    91    1
    21    83    80   ar
    22    39    37   ar
    23    39    41   ar
    24   105   104   ar
    25   105   107   ar
    26    37    38   ar
    27   104   106   ar
    28    28    29    1
    29    28    30    1
    30    86    84   ar
    31    29    31    1
    32    75    76    2
    33    75    74    1
    34   107   109   ar
    35    41    42   ar
    36    91    92    1
    37    80    78   ar
    38    80    82   ar
    39   106   108   ar
    40    38    40   ar
    41    77    74    1
    42    77    78    1
    43    74    73    1
    44    84    82   ar
    45    78    79   ar
    46    82    81   ar
    47   109   108   ar
    48    92    94   ar
    49    92    93   ar
    50    42    40   ar
    51   110   111    1
    52   127   126    1
    53    94    96   ar
    54    93    95   ar
    55    79    81   ar
    56   114   111    1
    57   114   115    1
    58    96    97   ar
    59   111   112    1
    60    95    97   ar
    61   126   128    1
    62   126   125    2
    63   117   115    1
    64    97    98    1
    65   124   125    1
    66   124   123    1
    67   115   116    1
    68   118   112   am
    69   118   119    1
    70   112   113    2
    71   122   123    1
    72   122   119    1
    73    43    44    1
    74   119   120    1
    75    47    44    1
    76    70    71    2
    77    70    69    1
    78   120   121    2
    79    44    45    1
    80    72    69    1
    81   157   155   ar
    82   157   159   ar
    83   155   154   ar
    84   159   158   ar
    85    69    68    1
    86   154   153    1
    87   154   156   ar
    88     5     2    1
    89     1     2    1
    90   158   156   ar
    91   153   150    1
    92    46    45    2
    93     2     3    1
    94    59    58    1
    95    67    65   am
    96   135   134    1
    97   150   151    1
    98   150   149    1
    99   129   130    1
   100   134   136    1
   101   134   133    1
   102    56    58   ar
   103    56    54   ar
   104   151   152    1
   105    66    65    2
   106    58    57   ar
   107     4     3    2
   108    65    64    1
   109   133   130    1
   110    12    10    1
   111    54    53   ar
   112   130   131    1
   113   148   145    1
   114    57    55   ar
   115    64    61    1
   116   131   132    2
   117    10    11    1
   118    10     7    1
   119    53    55   ar
   120    53    52    1
   121    23    22   ar
   122    23    21   ar
   123    63    62    2
   124    48    49    1
   125    62    61    1
   126   145   146    1
   127   145   144    1
   128    22    20   ar
   129   142   141    2
   130   142   143    1
   131   146   147    2
   132    61    60    1
   133    21    19   ar
   134     6     7    1
   135    52    49    1
   136     7     8    1
   137   141   138    1
   138    49    50    1
   139   143   137    2
   140    20    18   ar
   141   140   139    2
   142    19    18   ar
   143     8     9    2
   144   139   138    1
   145   138   137    1
   146    50    51    2
   147    18    17    1
   148    17    14    1
   149    13    14    1
   150    14    15    1
   151    15    16    2
