@<TRIPOS>MOLECULE
tmp/1n5vA00.pdb
 180 170 0 0 0
SMALL
GASTEIGER

@<TRIPOS>ATOM
      1  N         44.5990   30.4040    9.6480 N.3    12  ALA12      -0.1245
      2  CA        43.8550   31.4240   10.3880 C.3    12  ALA12       0.1562
      3  C         43.2860   32.3820    9.3310 C.2    12  ALA12       0.2260
      4  O         43.9560   32.9490    8.4630 O.2    12  ALA12      -0.2867
      5  CB        44.7770   32.1590   11.3620 C.3    12  ALA12       0.0290
      6  N         41.3390   35.7610    9.2410 N.3    14  VAL14      -0.1245
      7  CA        41.1080   36.8900   10.1060 C.3    14  VAL14       0.1561
      8  C         40.4340   37.9880    9.2860 C.2    14  VAL14       0.2260
      9  O         41.0590   38.5730    8.4180 O.2    14  VAL14      -0.2867
     10  CB        42.4230   37.4440   10.7020 C.3    14  VAL14       0.0252
     11  CG1       42.1520   38.5300   11.7280 C.3    14  VAL14       0.0019
     12  CG2       43.2660   36.3580   11.3820 C.3    14  VAL14       0.0019
     13  N         38.7220   41.7580    9.3480 N.3    16  PHE16      -0.1241
     14  CA        38.6970   43.0580   10.0120 C.3    16  PHE16       0.1605
     15  C         37.5690   43.9380    9.4570 C.2    16  PHE16       0.2264
     16  O         37.6290   44.3120    8.2780 O.2    16  PHE16      -0.2867
     17  CB        39.9980   43.8450    9.7180 C.3    16  PHE16       0.0534
     18  CG        41.2720   43.2440   10.2380 C.ar   16  PHE16      -0.0203
     19  CD1       41.8920   42.2300    9.5030 C.ar   16  PHE16      -0.0042
     20  CD2       41.8760   43.6930   11.3960 C.ar   16  PHE16      -0.0042
     21  CE1       43.0390   41.6110    9.9750 C.ar   16  PHE16      -0.0003
     22  CE2       43.0570   43.0940   11.8590 C.ar   16  PHE16      -0.0003
     23  CZ        43.6260   42.0430   11.1590 C.ar   16  PHE16      -0.0000
     24  N         55.3110   44.3430   10.1880 N.3    36  GLN36      -0.1245
     25  CA        55.4800   42.9550   10.6250 C.3    36  GLN36       0.1566
     26  C         56.5880   42.2310    9.8650 C.2    36  GLN36       0.2260
     27  O         56.4990   41.0280    9.6120 O.2    36  GLN36      -0.2867
     28  CB        54.1880   42.1760   10.5840 C.3    36  GLN36       0.0367
     29  CG        53.5190   41.9960    9.2360 C.3    36  GLN36       0.0905
     30  CD        52.2060   41.2450    9.5110 C.2    36  GLN36       0.2608
     31  OE1       51.1170   41.7570    9.1960 O.2    36  GLN36      -0.2717
     32  NE2       52.3310   40.0700   10.1010 N.am   36  GLN36      -0.0878
     33  N         57.7860   38.9860   11.1620 N.3    39  ILE39      -0.1245
     34  CA        57.0920   37.7110   11.0380 C.3    39  ILE39       0.1561
     35  C         57.6720   36.7970    9.9770 C.2    39  ILE39       0.2260
     36  O         57.6410   35.5710   10.1120 O.2    39  ILE39      -0.2867
     37  CB        55.5670   37.8520   10.8160 C.3    39  ILE39       0.0252
     38  CG1       54.8500   36.5610   11.2520 C.3    39  ILE39       0.0019
     39  CG2       55.2630   38.1000    9.3500 C.3    39  ILE39       0.0019
     40  CD1       53.3600   36.6910   11.4710 C.3    39  ILE39       0.0001
     41  N         56.0240   30.0690    9.8430 N.3    45  PHE45      -0.1298
     42  CA        55.1460   31.0050    9.1070 C.3    45  PHE45       0.1290
     43  C         55.2180   30.7840    7.6180 C.3    45  PHE45       0.2013
     44  O         56.3810   30.7180    7.1920 O.3    45  PHE45      -0.2188
     45  CB        55.6220   32.4430    9.3690 C.3    45  PHE45       0.0480
     46  CG        54.8880   33.4840    8.5410 C.ar   45  PHE45      -0.0206
     47  CD1       53.5650   33.7620    8.7910 C.ar   45  PHE45      -0.0042
     48  CD2       55.5530   34.1880    7.5560 C.ar   45  PHE45      -0.0042
     49  CE1       52.9210   34.7580    8.0610 C.ar   45  PHE45      -0.0003
     50  CE2       54.9050   35.1750    6.8180 C.ar   45  PHE45      -0.0003
     51  CZ        53.5720   35.4710    7.0870 C.ar   45  PHE45      -0.0000
     52  N         50.8430   35.4170    4.8200 N.3    48  ALA48      -0.1245
     53  CA        49.6540   36.1440    5.2650 C.3    48  ALA48       0.1562
     54  C         49.2080   36.9780    4.0450 C.2    48  ALA48       0.2260
     55  O         49.9150   37.9300    3.6390 O.2    48  ALA48      -0.2867
     56  CB        49.9040   36.9720    6.5040 C.3    48  ALA48       0.0290
     57  N         46.4350   39.5240    2.4480 N.3    50  TYR50      -0.1241
     58  CA        45.3810   40.4610    2.8320 C.3    50  TYR50       0.1605
     59  C         44.5330   40.8440    1.6210 C.2    50  TYR50       0.2264
     60  O         45.0430   41.1960    0.5580 O.2    50  TYR50      -0.2867
     61  CB        45.9430   41.7710    3.3690 C.3    50  TYR50       0.0534
     62  CG        46.4970   41.5590    4.7660 C.ar   50  TYR50      -0.0201
     63  CD1       47.7660   40.9910    4.8860 C.ar   50  TYR50      -0.0009
     64  CD2       45.7940   41.8940    5.8730 C.ar   50  TYR50      -0.0009
     65  CE1       48.2980   40.7510    6.1470 C.ar   50  TYR50       0.0417
     66  CE2       46.2850   41.6500    7.1470 C.ar   50  TYR50       0.0417
     67  CZ        47.5370   41.0700    7.2480 C.ar   50  TYR50       0.1957
     68  OH        48.0880   40.8910    8.4750 O.3    50  TYR50      -0.2866
     69  N         42.4920   38.4250    6.0690 N.3    61  ASN61      -0.1240
     70  CA        43.8340   37.8430    6.0030 C.3    61  ASN61       0.1653
     71  C         43.6570   36.3050    5.9750 C.2    61  ASN61       0.2266
     72  O         43.0450   35.8110    6.8930 O.2    61  ASN61      -0.2867
     73  CB        44.5730   38.1890    7.3090 C.3    61  ASN61       0.1155
     74  CG        45.9400   37.5680    7.4950 C.2    61  ASN61       0.2627
     75  OD1       46.5660   37.0900    6.5820 O.2    61  ASN61      -0.2716
     76  ND2       46.5990   37.6230    8.6560 N.am   61  ASN61      -0.0877
     77  N         45.9580   33.3250    6.3790 N.3    63  ALA63      -0.1245
     78  CA        47.3010   33.0870    6.8680 C.3    63  ALA63       0.1562
     79  C         47.6130   31.5970    6.9520 C.2    63  ALA63       0.2260
     80  O         46.8280   30.7450    7.4330 O.2    63  ALA63      -0.2867
     81  CB        47.4450   33.7920    8.1960 C.3    63  ALA63       0.0290
     82  N         50.2460   28.4790    8.1220 N.3    65  TRP65      -0.1241
     83  CA        51.1700   28.1150    9.1350 C.3    65  TRP65       0.1605
     84  C         51.4920   26.6180    8.9950 C.2    65  TRP65       0.2264
     85  O         50.6160   25.8760    8.5540 O.2    65  TRP65      -0.2867
     86  CB        50.6780   28.3110   10.6030 C.3    65  TRP65       0.0550
     87  CG        50.6800   29.7660   10.9260 C.ar   65  TRP65       0.0003
     88  CD1       49.6610   30.6490   10.6210 C.ar   65  TRP65       0.0946
     89  CD2       51.7710   30.5310   11.4910 C.ar   65  TRP65       0.0152
     90  NE1       50.0810   31.9040   10.9930 N.ar   65  TRP65      -0.2442
     91  CE2       51.3410   31.8680   11.5450 C.ar   65  TRP65       0.0810
     92  CE3       53.0220   30.2310   11.9550 C.ar   65  TRP65       0.0012
     93  CZ2       52.1110   32.8850   12.0640 C.ar   65  TRP65       0.0191
     94  CZ3       53.8250   31.2310   12.4850 C.ar   65  TRP65       0.0001
     95  CH2       53.3750   32.5590   12.5290 C.ar   65  TRP65       0.0015
     96  N         52.2580   28.1040   15.1710 N.3    71  TYR71      -0.1241
     97  CA        51.4570   29.3130   15.3300 C.3    71  TYR71       0.1605
     98  C         51.3790   29.7640   16.7870 C.2    71  TYR71       0.2264
     99  O         51.4210   30.9710   17.1250 O.2    71  TYR71      -0.2867
    100  CB        50.0290   29.0440   14.8300 C.3    71  TYR71       0.0534
    101  CG        49.0390   30.1700   15.1030 C.ar   71  TYR71      -0.0201
    102  CD1       49.0130   31.2250   14.1920 C.ar   71  TYR71      -0.0009
    103  CD2       48.1880   30.2180   16.2090 C.ar   71  TYR71      -0.0009
    104  CE1       48.1800   32.3040   14.3490 C.ar   71  TYR71       0.0417
    105  CE2       47.3120   31.2940   16.3830 C.ar   71  TYR71       0.0417
    106  CZ        47.3200   32.3060   15.4450 C.ar   71  TYR71       0.1957
    107  OH        46.5070   33.4240   15.5040 O.3    71  TYR71      -0.2866
    108  N         54.0460   32.6860   17.1020 N.3    75  PHE75      -0.1241
    109  CA        53.3210   33.9260   16.8910 C.3    75  PHE75       0.1605
    110  C         52.5050   34.2630   18.1210 C.2    75  PHE75       0.2264
    111  O         52.7680   35.3130   18.7030 O.2    75  PHE75      -0.2867
    112  CB        52.4250   33.6690   15.6870 C.3    75  PHE75       0.0534
    113  CG        51.6530   34.9020   15.3790 C.ar   75  PHE75      -0.0203
    114  CD1       52.2710   35.9270   14.6780 C.ar   75  PHE75      -0.0042
    115  CD2       50.3360   35.0090   15.7950 C.ar   75  PHE75      -0.0042
    116  CE1       51.5310   37.0580   14.4010 C.ar   75  PHE75      -0.0003
    117  CE2       49.6030   36.1240   15.5080 C.ar   75  PHE75      -0.0003
    118  CZ        50.2040   37.1600   14.8070 C.ar   75  PHE75      -0.0000
    119  N         53.3520   39.8760   18.4260 N.3    81  SER81      -0.1217
    120  CA        52.0060   39.7260   17.9070 C.3    81  SER81       0.1889
    121  C         50.9920   40.6630   18.5590 C.2    81  SER81       0.2288
    122  O         50.0430   41.1280   17.9310 O.2    81  SER81      -0.2866
    123  CB        51.4790   38.2930   18.0980 C.3    81  SER81       0.2089
    124  OG        51.2880   38.0430   19.4840 O.3    81  SER81      -0.2183
    125  N         51.7420   43.8790   16.9700 N.3    84  LEU84      -0.1231
    126  CA        51.0900   43.9080   15.6550 C.3    84  LEU84       0.1693
    127  C         49.6140   44.2650   15.8080 C.2    84  LEU84       0.2591
    128  O         49.1270   45.2490   15.2220 O.2    84  LEU84      -0.2718
    129  CB        51.2930   42.5750   14.8950 C.3    84  LEU84       0.0284
    130  CG        50.5390   42.5450   13.5630 C.3    84  LEU84       0.0019
    131  CD1       51.1630   43.5250   12.5590 C.3    84  LEU84       0.0001
    132  CD2       50.4560   41.1690   12.9270 C.3    84  LEU84       0.0001
    133  N         48.9070   43.5160   16.6720 N.am   85  ARG85      -0.1980
    134  CA        47.5060   43.7630   16.9390 C.3    85  ARG85       0.1597
    135  C         47.2630   45.1800   17.4360 C.2    85  ARG85       0.2287
    136  O         46.2800   45.8010   17.0580 O.2    85  ARG85      -0.2864
    137  CB        46.9260   42.7610   17.9440 C.3    85  ARG85       0.0334
    138  CG        45.4590   42.9730   18.2920 C.3    85  ARG85       0.0492
    139  CD        45.0510   42.5200   19.7060 C.3    85  ARG85       0.2205
    140  NE        45.6110   43.4190   20.7000 N.pl3  85  ARG85      -0.0865
    141  CZ        45.3420   44.7130   20.9030 C.cat  85  ARG85       0.5346
    142  NH1       44.4140   45.3410   20.1940 N.pl3  85  ARG85       0.1354
    143  NH2       46.0070   45.4250   21.8140 N.pl3  85  ARG85       0.1354
    144  N         47.4440   47.3400   14.3360 N.3    88  LEU88      -0.1231
    145  CA        46.2490   47.1580   13.4850 C.3    88  LEU88       0.1693
    146  C         45.0030   47.6950   14.1580 C.2    88  LEU88       0.2592
    147  O         44.1790   48.3610   13.5100 O.2    88  LEU88      -0.2718
    148  CB        46.0970   45.7110   13.0280 C.3    88  LEU88       0.0284
    149  CG        47.2990   45.1320   12.2540 C.3    88  LEU88       0.0019
    150  CD1       47.1020   43.7160   11.7250 C.3    88  LEU88       0.0001
    151  CD2       47.6560   45.9690   11.0100 C.3    88  LEU88       0.0001
    152  N         44.8060   47.6200   15.4600 N.am   89  SER89      -0.1952
    153  CA        43.5620   48.1840   16.0200 C.3    89  SER89       0.1924
    154  C         43.6360   49.6720   16.3140 C.2    89  SER89       0.2314
    155  O         42.6750   50.2310   16.8350 O.2    89  SER89      -0.2863
    156  CB        43.0990   47.3580   17.2130 C.3    89  SER89       0.2116
    157  OG        44.0340   47.5520   18.2650 O.3    89  SER89      -0.2180
    158  N         38.9250   42.3680   15.1890 N.3    98  PRO98      -0.2116
    159  CA        39.0260   41.2830   14.2660 C.3    98  PRO98       0.1372
    160  C         38.3480   40.0280   14.8100 C.2    98  PRO98       0.2244
    161  O         38.4690   39.6790   15.9760 O.2    98  PRO98      -0.2868
    162  CB        40.5420   40.9900   14.1920 C.3    98  PRO98       0.0268
    163  CG        41.1900   42.2910   14.5640 C.3    98  PRO98       0.0207
    164  CD        40.2830   42.8040   15.6880 C.3    98  PRO98       0.0892
    165  N         38.5140   35.8500   14.1260 N.3   100  ALA100     -0.1245
    166  CA        39.3940   34.8210   13.6150 C.3   100  ALA100      0.1562
    167  C         38.7500   33.4460   13.5780 C.2   100  ALA100      0.2260
    168  O         37.9280   33.1230   14.4470 O.2   100  ALA100     -0.2867
    169  CB        40.6480   34.7430   14.4580 C.3   100  ALA100      0.0290
    170  N         39.8850   29.4310   12.9960 N.3   102  PHE102     -0.1241
    171  CA        41.0310   28.5220   12.9070 C.3   102  PHE102      0.1605
    172  C         40.5340   27.2670   12.1950 C.2   102  PHE102      0.2264
    173  O         39.4240   26.7760   12.3540 O.2   102  PHE102     -0.2867
    174  CB        41.7150   28.2890   14.2390 C.3   102  PHE102      0.0534
    175  CG        42.1040   29.5550   14.9520 C.ar  102  PHE102     -0.0203
    176  CD1       43.1730   30.3210   14.5250 C.ar  102  PHE102     -0.0042
    177  CD2       41.4060   30.0070   16.0450 C.ar  102  PHE102     -0.0042
    178  CE1       43.5070   31.5120   15.1520 C.ar  102  PHE102     -0.0003
    179  CE2       41.7190   31.1700   16.7250 C.ar  102  PHE102     -0.0003
    180  CZ        42.7840   31.9350   16.2730 C.ar  102  PHE102     -0.0000
@<TRIPOS>BOND
     1    60    59    2
     2    59    58    1
     3    57    58    1
     4    58    61    1
     5    61    62    1
     6    55    54    2
     7    54    53    1
     8    62    63   ar
     9    62    64   ar
    10    52    53    1
    11    63    65   ar
    12    53    56    1
    13    64    66   ar
    14    71    70    1
    15    71    72    2
    16    70    69    1
    17    70    73    1
    18    65    67   ar
    19    77    78    1
    20    75    74    2
    21    50    51   ar
    22    50    48   ar
    23    78    79    1
    24    78    81    1
    25    79    80    2
    26    51    49   ar
    27    66    67   ar
    28    44    43    1
    29    67    68    1
    30    73    74    1
    31    74    76   am
    32    48    46   ar
    33    43    42    1
    34    49    47   ar
    35    82    83    1
    36    16    15    2
    37     9     8    2
    38     4     3    2
    39    46    47   ar
    40    46    45    1
    41    85    84    2
    42    84    83    1
    43    42    45    1
    44    42    41    1
    45    83    86    1
    46    31    30    2
    47    29    30    1
    48    29    28    1
    49     6     7    1
    50     8     7    1
    51     3     2    1
    52    13    14    1
    53    39    37    1
    54    15    14    1
    55    19    21   ar
    56    19    18   ar
    57    30    32   am
    58    27    26    2
    59     1     2    1
    60    17    14    1
    61    17    18    1
    62    26    25    1
    63    21    23   ar
    64    35    36    2
    65    35    34    1
    66     7    10    1
    67    24    25    1
    68    18    20   ar
    69     2     5    1
    70    28    25    1
    71    86    87    1
    72    88    87   ar
    73    88    90   ar
    74    10    12    1
    75    10    11    1
    76    37    34    1
    77    37    38    1
    78    87    89   ar
    79    90    91   ar
    80   151   149    1
    81    34    33    1
    82    23    22   ar
    83    38    40    1
    84    20    22   ar
    85    89    91   ar
    86    89    92   ar
    87    91    93   ar
    88   150   149    1
    89    92    94   ar
    90    93    95   ar
    91   172   173    2
    92   172   171    1
    93   149   148    1
    94    94    95   ar
    95   131   130    1
    96   171   170    1
    97   171   174    1
    98   132   130    1
    99   148   145    1
   100   145   146    1
   101   145   144    1
   102   147   146    2
   103   130   129    1
   104   167   166    1
   105   167   168    2
   106   166   165    1
   107   166   169    1
   108   146   152   am
   109   102   104   ar
   110   102   101   ar
   111   162   159    1
   112   162   163    1
   113   174   175    1
   114   159   160    1
   115   159   158    1
   116   104   106   ar
   117   116   114   ar
   118   116   118   ar
   119   176   175   ar
   120   176   178   ar
   121   163   164    1
   122   114   113   ar
   123   118   117   ar
   124   160   161    2
   125   100   101    1
   126   100    97    1
   127   129   126    1
   128   175   177   ar
   129   101   103   ar
   130   178   180   ar
   131    96    97    1
   132   158   164    1
   133   128   127    2
   134    97    98    1
   135   113   112    1
   136   113   115   ar
   137   106   107    1
   138   106   105   ar
   139   152   153    1
   140   117   115   ar
   141   126   127    1
   142   126   125    1
   143   112   109    1
   144   127   133   am
   145   153   154    1
   146   153   156    1
   147   177   179   ar
   148   103   105   ar
   149   180   179   ar
   150   154   155    2
   151   133   134    1
   152    98    99    2
   153   109   108    1
   154   109   110    1
   155   134   135    1
   156   134   137    1
   157   136   135    2
   158   156   157    1
   159   120   123    1
   160   120   119    1
   161   120   121    1
   162   122   121    2
   163   137   138    1
   164   123   124    1
   165   110   111    2
   166   138   139    1
   167   139   140    1
   168   142   141    1
   169   140   141    2
   170   141   143    1
