@<TRIPOS>MOLECULE
tmp/1n5wF00.pdb
 117 112 0 0 0
SMALL
GASTEIGER

@<TRIPOS>ATOM
      1  N        108.2920  212.9750  145.8510 N.3    35  HIS35      -0.1226
      2  CA       108.2030  212.6780  147.2970 C.3    35  HIS35       0.1752
      3  C        107.4100  213.6670  148.1240 C.2    35  HIS35       0.2596
      4  O        107.3500  213.5090  149.3550 O.2    35  HIS35      -0.2718
      5  CB       109.5970  212.3240  147.8550 C.3    35  HIS35       0.0759
      6  CG       109.9740  210.9350  147.5140 C.ar   35  HIS35       0.0818
      7  ND1      110.0870  210.5010  146.2150 N.ar   35  HIS35      -0.2268
      8  CD2      110.2600  209.8680  148.3120 C.ar   35  HIS35       0.1154
      9  CE1      110.3800  209.1940  146.2360 C.ar   35  HIS35       0.1986
     10  NE2      110.5300  208.7930  147.4920 N.ar   35  HIS35      -0.2212
     11  N        106.7850  214.6680  147.4790 N.am   36  SER36      -0.1952
     12  CA       105.6310  215.3890  148.0580 C.3    36  SER36       0.1924
     13  C        104.3570  215.0830  147.2760 C.2    36  SER36       0.2314
     14  O        103.2560  214.9100  147.8660 O.2    36  SER36      -0.2863
     15  CB       105.8670  216.8710  148.2220 C.3    36  SER36       0.2116
     16  OG       106.8010  217.1170  149.2340 O.3    36  SER36      -0.2180
     17  N        102.8460  211.2650  147.6730 N.3    39  PRO39      -0.2116
     18  CA       102.1330  211.1180  148.9570 C.3    39  PRO39       0.1372
     19  C        100.7760  211.7900  148.9830 C.2    39  PRO39       0.2244
     20  O         99.8310  211.2260  149.5270 O.2    39  PRO39      -0.2868
     21  CB       103.0920  211.7040  149.9880 C.3    39  PRO39       0.0268
     22  CG       104.4270  211.3150  149.3830 C.3    39  PRO39       0.0207
     23  CD       104.2790  211.6300  147.8610 C.3    39  PRO39       0.0892
     24  N        119.4710  217.5770  156.9970 N.3   100  LEU100     -0.1231
     25  CA       118.3740  217.6850  157.9300 C.3   100  LEU100      0.1693
     26  C        117.0070  217.4700  157.2940 C.2   100  LEU100      0.2592
     27  O        115.9610  217.6190  157.9480 O.2   100  LEU100     -0.2718
     28  CB       118.4200  219.0460  158.6350 C.3   100  LEU100      0.0284
     29  CG       119.6450  219.2630  159.5240 C.3   100  LEU100      0.0019
     30  CD1      119.8750  220.6430  159.9250 C.3   100  LEU100      0.0001
     31  CD2      119.5720  218.3650  160.7420 C.3   100  LEU100      0.0001
     32  N        116.9770  217.1360  156.0190 N.am  101  ILE101     -0.1966
     33  CA       115.7340  216.9090  155.2480 C.3   101  ILE101      0.1727
     34  C        115.5160  215.3950  155.0980 C.2   101  ILE101      0.2616
     35  O        116.3310  214.6880  154.4830 O.2   101  ILE101     -0.2715
     36  CB       115.8320  217.5570  153.8600 C.3   101  ILE101      0.0290
     37  CG1      115.8510  219.0780  153.9880 C.3   101  ILE101      0.0022
     38  CG2      114.7090  217.0690  152.9700 C.3   101  ILE101      0.0023
     39  CD1      115.9700  219.8320  152.6900 C.3   101  ILE101      0.0001
     40  N        114.3780  214.9250  155.5550 N.am  102  ALA102     -0.1963
     41  CA       113.9210  213.6000  155.2710 C.3   102  ALA102      0.1728
     42  C        114.8670  212.4930  155.6880 C.2   102  ALA102      0.2616
     43  O        115.2390  212.4810  156.8520 O.2   102  ALA102     -0.2715
     44  CB       113.4800  213.4960  153.7940 C.3   102  ALA102      0.0334
     45  N        115.1680  211.5740  154.7960 N.am  103  ASP103     -0.1971
     46  CA       115.9590  210.3520  155.1070 C.3   103  ASP103      0.1709
     47  C        116.7040  209.9340  153.8020 C.2   103  ASP103      0.2293
     48  O        116.5130  210.6050  152.8030 O.2   103  ASP103     -0.2864
     49  CB       115.0330  209.2850  155.6770 C.3   103  ASP103      0.1436
     50  CG       114.0230  208.7190  154.6990 C.2   103  ASP103      0.3671
     51  OD1      114.3970  208.4850  153.5530 O.co2 103  ASP103     -0.2456
     52  OD2      112.8570  208.4160  155.1210 O.co2 103  ASP103     -0.2456
     53  N        114.5060  209.2160  150.5960 N.3   106  ILE106     -0.1245
     54  CA       113.8190  210.3900  150.1010 C.3   106  ILE106      0.1561
     55  C        114.7960  211.3900  149.4810 C.2   106  ILE106      0.2260
     56  O        114.5290  211.9750  148.4220 O.2   106  ILE106     -0.2867
     57  CB       112.9130  210.9970  151.1930 C.3   106  ILE106      0.0252
     58  CG1      111.8060  209.9580  151.6140 C.3   106  ILE106      0.0019
     59  CG2      112.4130  212.3950  150.7230 C.3   106  ILE106      0.0019
     60  CD1      111.0660  210.3110  152.9210 C.3   106  ILE106      0.0001
     61  N        111.4520  220.9070  146.0950 N.3   115  ASN115     -0.1240
     62  CA       111.3530  221.3560  147.4420 C.3   115  ASN115      0.1653
     63  C        110.9810  222.8690  147.4890 C.2   115  ASN115      0.2266
     64  O        110.2310  223.3230  148.3900 O.2   115  ASN115     -0.2867
     65  CB       112.7470  221.1590  148.1220 C.3   115  ASN115      0.1155
     66  CG       112.6660  221.1560  149.6120 C.2   115  ASN115      0.2627
     67  OD1      112.6190  222.2360  150.2430 O.2   115  ASN115     -0.2716
     68  ND2      112.6800  219.9590  150.2110 N.am  115  ASN115     -0.0877
     69  N        108.5970  222.5040  154.0890 N.3   123  ASN123     -0.1225
     70  CA       109.8370  222.2920  153.3810 C.3   123  ASN123      0.1785
     71  C        110.9350  223.2630  153.9030 C.2   123  ASN123      0.2597
     72  O        110.6720  224.4260  154.2180 O.2   123  ASN123     -0.2718
     73  CB       109.6360  222.4990  151.8850 C.3   123  ASN123      0.1169
     74  CG       108.9530  221.3010  151.1720 C.2   123  ASN123      0.2627
     75  OD1      108.6230  221.3950  149.9910 O.2   123  ASN123     -0.2716
     76  ND2      108.5100  220.3130  151.9350 N.am  123  ASN123     -0.0877
     77  N        112.1410  222.7360  154.0250 N.am  124  ASP124     -0.1974
     78  CA       113.2990  223.4680  154.5170 C.3   124  ASP124      0.1709
     79  C        113.9540  224.4220  153.5270 C.2   124  ASP124      0.2293
     80  O        114.5000  225.4740  153.9320 O.2   124  ASP124     -0.2864
     81  CB       114.3480  222.5040  155.0760 C.3   124  ASP124      0.1436
     82  CG       113.8750  221.8430  156.3700 C.2   124  ASP124      0.3671
     83  OD1      113.7310  222.5230  157.4440 O.co2 124  ASP124     -0.2456
     84  OD2      113.6460  220.5960  156.3360 O.co2 124  ASP124     -0.2456
     85  N        117.6810  223.1260  163.2100 N.3   185  LYS185     -0.1245
     86  CA       116.3260  222.5960  163.1180 C.3   185  LYS185      0.1561
     87  C        115.9090  221.8630  164.3760 C.2   185  LYS185      0.2260
     88  O        116.6730  221.0060  164.8730 O.2   185  LYS185     -0.2867
     89  CB       116.2480  221.6510  161.9170 C.3   185  LYS185      0.0271
     90  CG       114.9210  221.0530  161.6010 C.3   185  LYS185      0.0035
     91  CD       114.8730  220.3520  160.2290 C.3   185  LYS185      0.0206
     92  CE       113.5760  219.5860  159.9630 C.3   185  LYS185      0.1093
     93  NZ       113.5440  218.9950  158.6270 N.3   185  LYS185     -0.1314
     94  N        113.2140  212.7260  159.7960 N.3   191  GLY191     -0.1210
     95  CA       112.2270  212.7380  158.7590 C.3   191  GLY191      0.1956
     96  C        111.0700  213.6760  158.9760 C.2   191  GLY191      0.2612
     97  O        110.1370  213.7550  158.1710 O.2   191  GLY191     -0.2717
     98  N        110.9960  214.2800  160.1390 N.am  192  ASP192     -0.1959
     99  CA       109.8970  215.2160  160.3950 C.3   192  ASP192      0.1840
    100  C        110.1830  216.6380  159.8770 C.2   192  ASP192      0.2622
    101  O        111.3210  217.1730  159.9650 O.2   192  ASP192     -0.2715
    102  CB       109.6200  215.2120  161.8870 C.3   192  ASP192      0.1450
    103  CG       108.3240  215.8270  162.3290 C.2   192  ASP192      0.3671
    104  OD1      107.3600  215.9700  161.5680 O.co2 192  ASP192     -0.2456
    105  OD2      108.2840  216.2130  163.5240 O.co2 192  ASP192     -0.2456
    106  N        109.0830  217.3040  159.5270 N.am  193  TYR193     -0.1974
    107  CA       109.1270  218.7300  159.2800 C.3   193  TYR193      0.1639
    108  C        109.3930  219.4960  160.5830 C.2   193  TYR193      0.2290
    109  O        108.9670  219.0700  161.6530 O.2   193  TYR193     -0.2864
    110  CB       107.8640  219.2170  158.5770 C.3   193  TYR193      0.0560
    111  CG       107.5540  218.4950  157.2800 C.ar  193  TYR193     -0.0198
    112  CD1      106.7200  217.4030  157.2740 C.ar  193  TYR193     -0.0009
    113  CD2      108.2400  218.7880  156.0920 C.ar  193  TYR193     -0.0009
    114  CE1      106.4920  216.6920  156.1220 C.ar  193  TYR193      0.0417
    115  CE2      107.9870  218.1260  154.9390 C.ar  193  TYR193      0.0417
    116  CZ       107.0780  217.0990  154.9330 C.ar  193  TYR193      0.1957
    117  OH       106.8760  216.4180  153.7580 O.3   193  TYR193     -0.2866
@<TRIPOS>BOND
     1     1     2    1
     2    61    62    1
     3     7     9   ar
     4     7     6   ar
     5     9    10   ar
     6    13    14    2
     7    13    12    1
     8     2     5    1
     9     2     3    1
    10    62    63    1
    11    62    65    1
    12    11    12    1
    13    11     3   am
    14    63    64    2
    15    10     8   ar
    16     6     5    1
    17     6     8   ar
    18    17    23    1
    19    17    18    1
    20    23    22    1
    21    12    15    1
    22    65    66    1
    23     3     4    2
    24    15    16    1
    25    56    55    2
    26    18    19    1
    27    18    21    1
    28    19    20    2
    29    22    21    1
    30    55    54    1
    31    66    68   am
    32    66    67    2
    33    75    74    2
    34    54    53    1
    35    54    57    1
    36    59    57    1
    37    74    73    1
    38    74    76   am
    39    57    58    1
    40    58    60    1
    41    73    70    1
    42    39    37    1
    43    48    47    2
    44    38    36    1
    45    70    71    1
    46    70    69    1
    47    79    80    2
    48    79    78    1
    49    51    50   ar
    50   117   116    1
    51    44    41    1
    52    47    46    1
    53    36    37    1
    54    36    33    1
    55    71    77   am
    56    71    72    2
    57    77    78    1
    58    35    34    2
    59    78    81    1
    60    50    52   ar
    61    50    49    1
    62    45    46    1
    63    45    42   am
    64   116   115   ar
    65   116   114   ar
    66   115   113   ar
    67    81    82    1
    68    34    33    1
    69    34    40   am
    70    46    49    1
    71    33    32    1
    72    41    40    1
    73    41    42    1
    74    42    43    2
    75    32    26   am
    76   113   111   ar
    77   114   112   ar
    78    84    82   ar
    79    82    83   ar
    80    24    25    1
    81   112   111   ar
    82   111   110    1
    83    26    25    1
    84    26    27    2
    85    25    28    1
    86    97    96    2
    87   110   107    1
    88    93    92    1
    89    28    29    1
    90    95    96    1
    91    95    94    1
    92    96    98   am
    93   107   106    1
    94   107   108    1
    95    29    30    1
    96    29    31    1
    97   106   100   am
    98   100   101    2
    99   100    99    1
   100    92    91    1
   101    98    99    1
   102    91    90    1
   103    99   102    1
   104   108   109    2
   105   104   103   ar
   106    90    89    1
   107   102   103    1
   108    89    86    1
   109   103   105   ar
   110    86    85    1
   111    86    87    1
   112    87    88    2
