@<TRIPOS>MOLECULE
tmp/1n62B00.pdb
 134 130 0 0 0
SMALL
GASTEIGER

@<TRIPOS>ATOM
      1  N        110.7790  143.9610  144.9580 N.3    93  LEU93      -0.1245
      2  CA       110.1510  143.4060  146.1290 C.3    93  LEU93       0.1561
      3  C        110.5350  141.9420  146.3030 C.2    93  LEU93       0.2260
      4  O        110.3570  141.3860  147.3740 O.2    93  LEU93      -0.2867
      5  CB       108.6430  143.5540  146.0460 C.3    93  LEU93       0.0270
      6  CG       108.1320  144.9970  145.9800 C.3    93  LEU93       0.0019
      7  CD1      106.6280  144.9590  145.8530 C.3    93  LEU93       0.0001
      8  CD2      108.5710  145.7630  147.2090 C.3    93  LEU93       0.0001
      9  N         94.6300  146.6410  140.3480 N.3   266  PHE266     -0.1227
     10  CA        94.5640  145.2130  140.0970 C.3   266  PHE266      0.1736
     11  C         95.9310  144.5610  140.2510 C.2   266  PHE266      0.2596
     12  O         96.1840  143.5380  139.6640 O.2   266  PHE266     -0.2718
     13  CB        93.9500  144.9260  138.7460 C.3   266  PHE266      0.0547
     14  CG        92.6960  145.6610  138.5000 C.ar  266  PHE266     -0.0202
     15  CD1       91.5240  145.3310  139.1420 C.ar  266  PHE266     -0.0042
     16  CD2       92.7080  146.7480  137.6680 C.ar  266  PHE266     -0.0042
     17  CE1       90.3850  146.0730  138.9050 C.ar  266  PHE266     -0.0003
     18  CE2       91.5850  147.4650  137.4370 C.ar  266  PHE266     -0.0003
     19  CZ        90.4250  147.1600  138.0730 C.ar  266  PHE266     -0.0000
     20  N         96.7870  145.1350  141.0730 N.am  267  GLY267     -0.1957
     21  CA        98.0990  144.6240  141.3460 C.3   267  GLY267      0.1869
     22  C         99.1850  145.1640  140.4800 C.2   267  GLY267      0.2309
     23  O        100.3620  144.9490  140.7400 O.2   267  GLY267     -0.2863
     24  N        101.6060  148.0600  142.3950 N.3   270  VAL270     -0.1245
     25  CA       102.2420  147.8630  143.6700 C.3   270  VAL270      0.1561
     26  C        103.7040  148.2750  143.6080 C.2   270  VAL270      0.2260
     27  O        104.1750  149.0740  144.4270 O.2   270  VAL270     -0.2867
     28  CB       102.1290  146.4000  144.0690 C.3   270  VAL270      0.0252
     29  CG1      102.8550  146.2160  145.3540 C.3   270  VAL270      0.0019
     30  CG2      100.6900  146.0090  144.2470 C.3   270  VAL270      0.0019
     31  N        106.1980  140.5460  143.1590 N.3   341  ALA341     -0.1231
     32  CA       105.7900  141.0680  144.4210 C.3   341  ALA341      0.1694
     33  C        105.4380  139.8650  145.2820 C.2   341  ALA341      0.2592
     34  O        104.8990  138.8450  144.8380 O.2   341  ALA341     -0.2718
     35  CB       104.5860  141.9630  144.2680 C.3   341  ALA341      0.0304
     36  N        105.8110  139.9440  146.5260 N.am  342  ASP342     -0.1974
     37  CA       105.4770  138.9160  147.4610 C.3   342  ASP342      0.1709
     38  C        106.0070  139.4270  148.7580 C.2   342  ASP342      0.2293
     39  O        106.9650  140.2030  148.8000 O.2   342  ASP342     -0.2864
     40  CB       106.2240  137.6350  147.1980 C.3   342  ASP342      0.1436
     41  CG       105.5410  136.7230  146.2220 C.2   342  ASP342      0.3671
     42  OD1      104.3650  136.4230  146.3800 O.co2 342  ASP342     -0.2456
     43  OD2      106.1950  136.1680  145.3140 O.co2 342  ASP342     -0.2456
     44  N        103.1470  138.2220  140.3220 N.3   379  VAL379     -0.1231
     45  CA       102.1070  138.4650  141.2720 C.3   379  VAL379      0.1692
     46  C        101.4380  139.7710  140.9550 C.2   379  VAL379      0.2592
     47  O        102.0400  140.8480  141.0460 O.2   379  VAL379     -0.2718
     48  CB       102.7090  138.4110  142.6580 C.3   379  VAL379      0.0266
     49  CG1      101.8100  139.0980  143.6780 C.3   379  VAL379      0.0020
     50  CG2      102.9290  136.9740  143.0340 C.3   379  VAL379      0.0020
     51  N        100.1990  139.6600  140.5500 N.am  380  ALA380     -0.1966
     52  CA        99.3710  140.7510  140.1200 C.3   380  ALA380      0.1728
     53  C         98.0500  140.1500  139.7120 C.2   380  ALA380      0.2616
     54  O         97.8930  138.9390  139.6640 O.2   380  ALA380     -0.2715
     55  CB       100.0190  141.5150  138.9490 C.3   380  ALA380      0.0334
     56  N         97.0780  140.9960  139.4360 N.am  381  TYR381     -0.1960
     57  CA        95.8530  140.6110  138.8010 C.3   381  TYR381      0.1771
     58  C         95.0430  139.6820  139.6870 C.2   381  TYR381      0.2619
     59  O         94.6550  138.5860  139.3020 O.2   381  TYR381     -0.2715
     60  CB        96.1430  139.9950  137.4580 C.3   381  TYR381      0.0574
     61  CG        95.0520  140.0040  136.4690 C.ar  381  TYR381     -0.0198
     62  CD1       93.8630  140.6700  136.6400 C.ar  381  TYR381     -0.0009
     63  CD2       95.2650  139.3660  135.2840 C.ar  381  TYR381     -0.0009
     64  CE1       92.9350  140.6700  135.6570 C.ar  381  TYR381      0.0417
     65  CE2       94.3440  139.4090  134.2880 C.ar  381  TYR381      0.0417
     66  CZ        93.1680  140.0480  134.4740 C.ar  381  TYR381      0.1957
     67  OH        92.2330  140.0410  133.4820 O.3   381  TYR381     -0.2866
     68  N         94.7190  140.1670  140.8670 N.am  382  ARG382     -0.1963
     69  CA        93.8830  139.4720  141.8180 C.3   382  ARG382      0.1729
     70  C         94.4040  138.0970  142.1690 C.2   382  ARG382      0.2616
     71  O         93.6120  137.1870  142.4190 O.2   382  ARG382     -0.2715
     72  CB        92.4440  139.3960  141.3390 C.3   382  ARG382      0.0348
     73  CG        91.8080  140.7320  141.1410 C.3   382  ARG382      0.0492
     74  CD        90.3010  140.7200  141.1760 C.3   382  ARG382      0.2205
     75  NE        89.7850  141.9390  140.5390 N.pl3 382  ARG382     -0.0865
     76  CZ        88.5730  142.4300  140.6840 C.cat 382  ARG382      0.5346
     77  NH1       87.7930  142.0930  141.6890 N.pl3 382  ARG382      0.1354
     78  NH2       88.1530  143.2870  139.7920 N.pl3 382  ARG382      0.1354
     79  N         95.7150  137.9670  142.3010 N.am  383  CYS383     -0.1954
     80  CA        96.2670  136.6580  142.6070 C.3   383  CYS383      0.1843
     81  C         96.3410  136.3260  144.0600 C.2   383  CYS383      0.2626
     82  O         96.5920  135.1580  144.4010 O.2   383  CYS383     -0.2714
     83  CB        97.5600  136.4070  141.8980 C.3   383  CYS383      0.0997
     84  SG        99.0850  137.0690  142.5610 S.3   383  CYS383     -0.0797
     85  N         96.3310  137.3270  144.9180 N.am  384  SER384     -0.1936
     86  CA        96.4380  137.1050  146.3490 C.3   384  SER384      0.2055
     87  C         97.7570  136.4790  146.7440 C.2   384  SER384      0.2643
     88  O         97.8410  135.8960  147.7910 O.2   384  SER384     -0.2714
     89  CB        95.2930  136.2810  146.9100 C.3   384  SER384      0.2130
     90  OG        94.0410  136.8320  146.5490 O.3   384  SER384     -0.2179
     91  N         98.7850  136.6490  145.9250 N.am  385  PHE385     -0.1973
     92  CA       100.0950  136.0070  146.0560 C.3   385  PHE385      0.1639
     93  C         99.9920  134.5480  145.6370 C.2   385  PHE385      0.2290
     94  O        100.1480  133.6280  146.4070 O.2   385  PHE385     -0.2864
     95  CB       100.6940  136.1100  147.4540 C.3   385  PHE385      0.0560
     96  CG       100.8560  137.4870  147.9490 C.ar  385  PHE385     -0.0200
     97  CD1      101.7840  138.3380  147.3820 C.ar  385  PHE385     -0.0042
     98  CD2      100.2050  137.8880  149.0900 C.ar  385  PHE385     -0.0042
     99  CE1      102.0450  139.5580  147.9500 C.ar  385  PHE385     -0.0003
    100  CE2      100.3420  139.1640  149.5800 C.ar  385  PHE385     -0.0003
    101  CZ       101.2890  139.9940  149.0260 C.ar  385  PHE385     -0.0000
    102  N        107.0980  143.1680  153.6370 N.3   495  ILE495     -0.1245
    103  CA       107.4840  143.6670  152.3390 C.3   495  ILE495      0.1561
    104  C        108.8250  144.3280  152.5070 C.2   495  ILE495      0.2260
    105  O        108.9400  145.3270  153.2430 O.2   495  ILE495     -0.2867
    106  CB       106.4760  144.6760  151.8260 C.3   495  ILE495      0.0252
    107  CG1      105.1300  144.0000  151.5830 C.3   495  ILE495      0.0019
    108  CG2      107.0320  145.3660  150.6180 C.3   495  ILE495      0.0019
    109  CD1      105.1260  142.9790  150.4940 C.3   495  ILE495      0.0001
    110  N         96.4650  145.5890  148.3420 N.3   563  TYR563     -0.1227
    111  CA        96.6940  144.4540  147.4680 C.3   563  TYR563      0.1736
    112  C         96.4110  143.2570  148.3190 C.2   563  TYR563      0.2596
    113  O         96.1090  143.3850  149.4950 O.2   563  TYR563     -0.2718
    114  CB        98.0990  144.4410  146.9040 C.3   563  TYR563      0.0548
    115  CG        99.1710  144.6580  147.9050 C.ar  563  TYR563     -0.0200
    116  CD1       99.4850  143.6930  148.8210 C.ar  563  TYR563     -0.0009
    117  CD2       99.7850  145.8880  148.0300 C.ar  563  TYR563     -0.0009
    118  CE1      100.4350  143.8990  149.7780 C.ar  563  TYR563      0.0417
    119  CE2      100.7300  146.1070  148.9840 C.ar  563  TYR563      0.0417
    120  CZ       101.0210  145.1250  149.8800 C.ar  563  TYR563      0.1957
    121  OH       101.9090  145.3500  150.8910 O.3   563  TYR563     -0.2866
    122  N         96.3690  142.0920  147.7280 N.am  564  GLY564     -0.1957
    123  CA        96.0780  140.8970  148.4580 C.3   564  GLY564      0.1869
    124  C         94.7570  140.8740  149.1660 C.2   564  GLY564      0.2309
    125  O         94.6470  140.2060  150.1880 O.2   564  GLY564     -0.2863
    126  N         89.6630  139.7660  145.5940 N.3   758  GLU758     -0.1245
    127  CA        90.3070  138.8890  144.6350 C.3   758  GLU758      0.1567
    128  C         89.6030  137.5630  144.4740 C.2   758  GLU758      0.2260
    129  O         89.8290  136.8930  143.4760 O.2   758  GLU758     -0.2867
    130  CB        91.7160  138.6650  145.0250 C.3   758  GLU758      0.0388
    131  CG        92.5410  139.9320  144.9700 C.3   758  GLU758      0.1160
    132  CD        93.8840  139.6950  145.5460 C.2   758  GLU758      0.3649
    133  OE1       93.9150  139.3850  146.7540 O.co2 758  GLU758     -0.2457
    134  OE2       94.9090  139.7150  144.8610 O.co2 758  GLU758     -0.2457
@<TRIPOS>BOND
     1    67    66    1
     2    65    66   ar
     3    65    63   ar
     4    66    64   ar
     5    63    61   ar
     6    64    62   ar
     7    61    62   ar
     8    61    60    1
     9    18    16   ar
    10    18    19   ar
    11    60    57    1
    12    16    14   ar
    13    19    17   ar
    14    14    13    1
    15    14    15   ar
    16    13    10    1
    17    57    56    1
    18    57    58    1
    19    17    15   ar
    20    55    52    1
    21    59    58    2
    22    56    53   am
    23    54    53    2
    24    12    11    2
    25    58    68   am
    26    53    52    1
    27    78    76    1
    28    10    11    1
    29    10     9    1
    30    52    51    1
    31    11    20   am
    32    44    45    1
    33    22    23    2
    34    22    21    1
    35    75    76    2
    36    75    74    1
    37    51    46   am
    38    76    77    1
    39    68    69    1
    40    46    47    2
    41    46    45    1
    42    20    21    1
    43    73    74    1
    44    73    72    1
    45    45    48    1
    46    72    69    1
    47    69    70    1
    48    83    84    1
    49    83    80    1
    50    70    79   am
    51    70    71    2
    52    79    80    1
    53    24    25    1
    54    80    81    1
    55    48    50    1
    56    48    49    1
    57    31    32    1
    58   129   128    2
    59    26    25    1
    60    26    27    2
    61    25    28    1
    62    81    82    2
    63    81    85   am
    64    28    30    1
    65    28    29    1
    66    35    32    1
    67    32    33    1
    68   128   127    1
    69   127   130    1
    70   127   126    1
    71    34    33    2
    72   134   132   ar
    73    85    86    1
    74     1     2    1
    75   131   130    1
    76   131   132    1
    77    33    36   am
    78    43    41   ar
    79   132   133   ar
    80    93    92    1
    81    93    94    2
    82     7     6    1
    83    91    92    1
    84    91    87   am
    85     6     5    1
    86     6     8    1
    87     5     2    1
    88    92    95    1
    89     2     3    1
    90    41    42   ar
    91    41    40    1
    92     3     4    2
    93    86    87    1
    94    86    89    1
    95    36    37    1
    96    90    89    1
    97    87    88    2
    98   114   111    1
    99   114   115    1
   100    40    37    1
   101    97    96   ar
   102    97    99   ar
   103    95    96    1
   104    37    38    1
   105   111   112    1
   106   111   110    1
   107   122   112   am
   108   122   123    1
   109   115   117   ar
   110   115   116   ar
   111    96    98   ar
   112    99   101   ar
   113   117   119   ar
   114   112   113    2
   115   123   124    1
   116    38    39    2
   117   116   118   ar
   118   119   120   ar
   119   101   100   ar
   120    98   100   ar
   121   124   125    2
   122   118   120   ar
   123   120   121    1
   124   109   107    1
   125   108   106    1
   126   107   106    1
   127   106   103    1
   128   103   104    1
   129   103   102    1
   130   104   105    2
