@<TRIPOS>MOLECULE
tmp/1n69B00.pdb
 150 141 0 0 0
SMALL
GASTEIGER

@<TRIPOS>ATOM
      1  N         24.7100   25.9130    3.5780 N.3    27  VAL27      -0.1245
      2  CA        25.4650   25.6830    4.8130 C.3    27  VAL27       0.1561
      3  C         26.8220   26.3900    4.9060 C.2    27  VAL27       0.2260
      4  O         27.5860   26.1490    5.8360 O.2    27  VAL27      -0.2867
      5  CB        25.7070   24.1740    5.0540 C.3    27  VAL27       0.0252
      6  CG1       24.4250   23.5110    5.5460 C.3    27  VAL27       0.0019
      7  CG2       26.2180   23.5160    3.7650 C.3    27  VAL27       0.0019
      8  N         27.5480   28.2060    8.2020 N.3    30  LEU30      -0.1231
      9  CA        27.7490   27.2520    9.2830 C.3    30  LEU30       0.1693
     10  C         29.1690   26.6690    9.2450 C.2    30  LEU30       0.2591
     11  O         29.8220   26.5300   10.2790 O.2    30  LEU30      -0.2718
     12  CB        26.7050   26.1340    9.1930 C.3    30  LEU30       0.0284
     13  CG        26.8330   24.9360   10.1430 C.3    30  LEU30       0.0019
     14  CD1       26.9260   25.4010   11.5830 C.3    30  LEU30       0.0001
     15  CD2       25.6300   24.0240    9.9580 C.3    30  LEU30       0.0001
     16  N         29.6420   26.3280    8.0510 N.am   31  VAL31      -0.1980
     17  CA        30.9810   25.7810    7.8990 C.3    31  VAL31       0.1595
     18  C         32.0350   26.8180    8.3190 C.2    31  VAL31       0.2287
     19  O         32.9930   26.4890    9.0220 O.2    31  VAL31      -0.2864
     20  CB        31.2340   25.3490    6.4420 C.3    31  VAL31       0.0276
     21  CG1       32.6930   24.9070    6.2670 C.3    31  VAL31       0.0022
     22  CG2       30.2790   24.2150    6.0720 C.3    31  VAL31       0.0022
     23  N         32.1870   26.9780   12.0600 N.3    34  VAL34      -0.1245
     24  CA        32.8800   25.8370   12.6720 C.3    34  VAL34       0.1561
     25  C         34.3880   26.0220   12.5700 C.2    34  VAL34       0.2260
     26  O         35.1180   25.8050   13.5300 O.2    34  VAL34      -0.2867
     27  CB        32.5080   24.4870   11.9880 C.3    34  VAL34       0.0252
     28  CG1       33.2800   23.3490   12.6350 C.3    34  VAL34       0.0019
     29  CG2       31.0120   24.2260   12.1090 C.3    34  VAL34       0.0019
     30  N         45.6360   23.2680   12.4820 N.3    48  ILE48      -0.1231
     31  CA        45.4040   21.8640   12.1380 C.3    48  ILE48       0.1692
     32  C         43.9070   21.6480   11.9070 C.2    48  ILE48       0.2592
     33  O         43.4920   20.9420   10.9870 O.2    48  ILE48      -0.2718
     34  CB        45.8710   20.9190   13.2820 C.3    48  ILE48       0.0266
     35  CG1       47.3910   20.9980   13.4450 C.3    48  ILE48       0.0019
     36  CG2       45.4500   19.4840   12.9880 C.3    48  ILE48       0.0020
     37  CD1       47.9420   20.0690   14.5220 C.3    48  ILE48       0.0001
     38  N         43.1150   22.2790   12.7630 N.am   49  CYS49      -0.1970
     39  CA        41.6590   22.2210   12.7400 C.3    49  CYS49       0.1712
     40  C         41.0840   22.8960   11.4850 C.2    49  CYS49       0.2296
     41  O         40.3250   22.2740   10.7350 O.2    49  CYS49      -0.2864
     42  CB        41.1660   22.8850   14.0280 C.3    49  CYS49       0.0983
     43  SG        39.3940   23.1980   14.3170 S.3    49  CYS49      -0.0798
     44  N         41.8030   20.9250    8.4550 N.3    52  TYR52      -0.1227
     45  CA        41.0790   19.6600    8.4840 C.3    52  TYR52       0.1736
     46  C         39.6530   19.8960    7.9870 C.2    52  TYR52       0.2595
     47  O         39.1950   19.2580    7.0370 O.2    52  TYR52      -0.2718
     48  CB        41.0430   19.1060    9.9130 C.3    52  TYR52       0.0548
     49  CG        40.6150   17.6570    9.9960 C.ar   52  TYR52      -0.0200
     50  CD1       41.5250   16.6280    9.7450 C.ar   52  TYR52      -0.0009
     51  CD2       39.2950   17.3130   10.2840 C.ar   52  TYR52      -0.0009
     52  CE1       41.1310   15.2910    9.7770 C.ar   52  TYR52       0.0417
     53  CE2       38.8900   15.9810   10.3160 C.ar   52  TYR52       0.0417
     54  CZ        39.8140   14.9760   10.0600 C.ar   52  TYR52       0.1957
     55  OH        39.4230   13.6580   10.0770 O.3    52  TYR52      -0.2866
     56  N         38.9590   20.8210    8.6420 N.am   53  ILE53      -0.1980
     57  CA        37.5940   21.1650    8.2720 C.3    53  ILE53       0.1595
     58  C         37.5730   21.5790    6.8050 C.2    53  ILE53       0.2287
     59  O         36.7580   21.0950    6.0180 O.2    53  ILE53      -0.2864
     60  CB        37.0680   22.3260    9.1470 C.3    53  ILE53       0.0276
     61  CG1       36.9600   21.8620   10.6020 C.3    53  ILE53       0.0022
     62  CG2       35.7160   22.8030    8.6380 C.3    53  ILE53       0.0022
     63  CD1       36.5390   22.9450   11.5700 C.3    53  ILE53       0.0001
     64  N         37.7540   18.3900    4.6410 N.3    56  TYR56      -0.1227
     65  CA        36.6100   17.4850    4.6000 C.3    56  TYR56       0.1736
     66  C         35.2020   18.0620    4.6690 C.2    56  TYR56       0.2596
     67  O         34.2430   17.2980    4.6960 O.2    56  TYR56      -0.2718
     68  CB        36.7380   16.4390    5.7110 C.3    56  TYR56       0.0548
     69  CG        38.0200   15.6450    5.6860 C.ar   56  TYR56      -0.0200
     70  CD1       39.1590   16.1020    6.3490 C.ar   56  TYR56      -0.0009
     71  CD2       38.0940   14.4300    5.0050 C.ar   56  TYR56      -0.0009
     72  CE1       40.3410   15.3670    6.3370 C.ar   56  TYR56       0.0417
     73  CE2       39.2700   13.6870    4.9840 C.ar   56  TYR56       0.0417
     74  CZ        40.3890   14.1600    5.6530 C.ar   56  TYR56       0.1957
     75  OH        41.5530   13.4240    5.6430 O.3    56  TYR56      -0.2866
     76  N         35.0590   19.3830    4.7040 N.am   57  SER57      -0.1952
     77  CA        33.7270   19.9780    4.7870 C.3    57  SER57       0.1924
     78  C         32.8080   19.4910    3.6600 C.2    57  SER57       0.2314
     79  O         31.6870   19.0610    3.9110 O.2    57  SER57      -0.2863
     80  CB        33.8180   21.5050    4.7680 C.3    57  SER57       0.2116
     81  OG        34.2820   21.9740    3.5190 O.3    57  SER57      -0.2180
     82  N         33.0380   16.8140    1.8520 N.3    59  ILE59      -0.1231
     83  CA        32.7690   15.3900    2.0280 C.3    59  ILE59       0.1692
     84  C         31.7890   15.1680    3.1760 C.2    59  ILE59       0.2592
     85  O         30.9230   14.3010    3.1010 O.2    59  ILE59      -0.2718
     86  CB        34.0780   14.6050    2.3060 C.3    59  ILE59       0.0266
     87  CG1       35.0060   14.7090    1.0950 C.3    59  ILE59       0.0019
     88  CG2       33.7670   13.1430    2.5960 C.3    59  ILE59       0.0020
     89  CD1       36.3240   13.9840    1.2590 C.3    59  ILE59       0.0001
     90  N         31.9320   15.9620    4.2320 N.am   60  ALA60      -0.1966
     91  CA        31.0570   15.8600    5.3950 C.3    60  ALA60       0.1728
     92  C         29.6320   16.2440    4.9950 C.2    60  ALA60       0.2616
     93  O         28.6670   15.5870    5.3900 O.2    60  ALA60      -0.2715
     94  CB        31.5580   16.7730    6.5040 C.3    60  ALA60       0.0334
     95  N         29.5120   17.3070    4.2040 N.am   61  ILE61      -0.1977
     96  CA        28.2130   17.7750    3.7340 C.3    61  ILE61       0.1596
     97  C         27.5690   16.6980    2.8640 C.2    61  ILE61       0.2287
     98  O         26.3640   16.4690    2.9430 O.2    61  ILE61      -0.2864
     99  CB        28.3390   19.0740    2.8840 C.3    61  ILE61       0.0276
    100  CG1       29.0840   20.1650    3.6660 C.3    61  ILE61       0.0022
    101  CG2       26.9600   19.5550    2.4650 C.3    61  ILE61       0.0022
    102  CD1       28.5000   20.4820    5.0190 C.3    61  ILE61       0.0001
    103  N         28.1460   13.4000    2.9750 N.3    63  MET63      -0.1230
    104  CA        27.7560   12.2770    3.8250 C.3    63  MET63       0.1702
    105  C         26.4290   12.5670    4.5230 C.2    63  MET63       0.2592
    106  O         25.5080   11.7500    4.5010 O.2    63  MET63      -0.2718
    107  CB        28.8180   11.9980    4.8960 C.3    63  MET63       0.0401
    108  CG        30.1410   11.4490    4.3860 C.3    63  MET63       0.0596
    109  SD        31.1320   10.6960    5.7210 S.3    63  MET63      -0.1393
    110  CE        32.0460   12.1110    6.3480 C.3    63  MET63       0.0692
    111  N         26.3410   13.7350    5.1480 N.am   64  MET64      -0.1979
    112  CA        25.1310   14.1250    5.8580 C.3    64  MET64       0.1605
    113  C         23.9350   14.2500    4.9250 C.2    64  MET64       0.2287
    114  O         22.8020   14.0200    5.3430 O.2    64  MET64      -0.2864
    115  CB        25.3620   15.4330    6.6150 C.3    64  MET64       0.0413
    116  CG        26.5720   15.3580    7.5310 C.3    64  MET64       0.0598
    117  SD        26.6600   16.6310    8.7990 S.3    64  MET64      -0.1393
    118  CE        26.5320   15.6210   10.2840 C.3    64  MET64       0.0692
    119  N         22.4530   10.8860    4.8570 N.3    67  MET67      -0.1245
    120  CA        22.0520   10.3370    6.1410 C.3    67  MET67       0.1570
    121  C         20.6520   10.8420    6.4810 C.2    67  MET67       0.2261
    122  O         20.2260   11.9080    6.0180 O.2    67  MET67      -0.2867
    123  CB        23.0310   10.7750    7.2350 C.3    67  MET67       0.0387
    124  CG        24.4000   10.0940    7.1830 C.3    67  MET67       0.0595
    125  SD        25.6230   10.9010    8.2460 S.3    67  MET67      -0.1393
    126  CE        25.1490   10.3110    9.8530 C.3    67  MET67       0.0692
    127  N         19.2880   10.0760   12.2500 N.3    71  GLU71      -0.1245
    128  CA        20.6050    9.4550   12.3320 C.3    71  GLU71       0.1567
    129  C         21.6240   10.5600   12.6340 C.2    71  GLU71       0.2260
    130  O         22.4870   10.4030   13.4900 O.2    71  GLU71      -0.2867
    131  CB        20.9240    8.7780   10.9940 C.3    71  GLU71       0.0388
    132  CG        22.2350    8.0270   10.9240 C.3    71  GLU71       0.1160
    133  CD        22.6280    7.6910    9.4880 C.2    71  GLU71       0.3649
    134  OE1       21.7480    7.2480    8.7120 O.co2  71  GLU71      -0.2457
    135  OE2       23.8170    7.8660    9.1390 O.co2  71  GLU71      -0.2457
    136  N         23.7630   11.0170   16.0940 N.3    75  LEU75      -0.1231
    137  CA        25.2090   11.1500   16.0470 C.3    75  LEU75       0.1693
    138  C         25.7000   12.3060   16.9140 C.2    75  LEU75       0.2591
    139  O         26.5750   12.1280   17.7600 O.2    75  LEU75      -0.2718
    140  CB        25.6580   11.3920   14.6020 C.3    75  LEU75       0.0284
    141  CG        27.1580   11.5750   14.3540 C.3    75  LEU75       0.0019
    142  CD1       27.8610   10.2380   14.5360 C.3    75  LEU75       0.0001
    143  CD2       27.3870   12.1090   12.9420 C.3    75  LEU75       0.0001
    144  N         25.1290   13.4910   16.6940 N.am   76  VAL76      -0.1980
    145  CA        25.5180   14.7020   17.4170 C.3    76  VAL76       0.1595
    146  C         25.0520   14.7640   18.8720 C.2    76  VAL76       0.2287
    147  O         25.4930   15.6280   19.6330 O.2    76  VAL76      -0.2864
    148  CB        25.0230   15.9650   16.6690 C.3    76  VAL76       0.0276
    149  CG1       25.6050   17.2210   17.3040 C.3    76  VAL76       0.0022
    150  CG2       25.4270   15.8840   15.2060 C.3    76  VAL76       0.0022
@<TRIPOS>BOND
     1    87    89    1
     2    87    86    1
     3    82    83    1
     4    83    86    1
     5    83    84    1
     6    86    88    1
     7   101    99    1
     8    97    98    2
     9    97    96    1
    10    99   100    1
    11    99    96    1
    12   103   104    1
    13    85    84    2
    14    84    90   am
    15    81    80    1
    16     1     2    1
    17    78    79    2
    18    78    77    1
    19   100   102    1
    20    96    95    1
    21     7     5    1
    22   104   105    1
    23   104   107    1
    24    95    92   am
    25    90    91    1
    26   108   107    1
    27   108   109    1
    28   106   105    2
    29   105   111   am
    30    65    64    1
    31    65    66    1
    32    65    68    1
    33    66    67    2
    34    66    76   am
    35    76    77    1
    36    80    77    1
    37     2     3    1
    38     2     5    1
    39   119   120    1
    40     3     4    2
    41   113   114    2
    42   113   112    1
    43    73    71   ar
    44    73    74   ar
    45    92    93    2
    46    92    91    1
    47    71    69   ar
    48     5     6    1
    49   111   112    1
    50    91    94    1
    51    75    74    1
    52    74    72   ar
    53    69    68    1
    54    69    70   ar
    55   109   110    1
    56   112   115    1
    57   122   121    2
    58    59    58    2
    59    22    20    1
    60   120   121    1
    61   120   123    1
    62    21    20    1
    63    72    70   ar
    64    20    17    1
    65   115   116    1
    66    58    57    1
    67    47    46    2
    68   124   123    1
    69   124   125    1
    70   116   117    1
    71    17    16    1
    72    17    18    1
    73    46    45    1
    74    46    56   am
    75    16    10   am
    76     8     9    1
    77   125   126    1
    78    57    56    1
    79    57    60    1
    80    18    19    2
    81    44    45    1
    82    45    48    1
    83    62    60    1
    84   134   133   ar
    85   117   118    1
    86   135   133   ar
    87    60    61    1
    88    12     9    1
    89    12    13    1
    90    10     9    1
    91    10    11    2
    92   133   132    1
    93    50    52   ar
    94    50    49   ar
    95    52    54   ar
    96    48    49    1
    97    15    13    1
    98    49    51   ar
    99    54    55    1
   100    54    53   ar
   101    13    14    1
   102    51    53   ar
   103    61    63    1
   104    41    40    2
   105   132   131    1
   106    33    32    2
   107   131   128    1
   108    40    39    1
   109    32    31    1
   110    32    38   am
   111    27    29    1
   112    27    28    1
   113    27    24    1
   114    23    24    1
   115    31    30    1
   116    31    34    1
   117   127   128    1
   118   128   129    1
   119    25    24    1
   120    25    26    2
   121   129   130    2
   122    39    38    1
   123    39    42    1
   124   143   141    1
   125    36    34    1
   126    34    35    1
   127    35    37    1
   128    42    43    1
   129   141   142    1
   130   141   140    1
   131   140   137    1
   132   150   148    1
   133   137   136    1
   134   137   138    1
   135   148   149    1
   136   148   145    1
   137   144   138   am
   138   144   145    1
   139   138   139    2
   140   145   146    1
   141   146   147    2
