@<TRIPOS>MOLECULE
tmp/1n69A00.pdb
 83 79 0 0 0
SMALL
GASTEIGER

@<TRIPOS>ATOM
      1  N         29.4390   13.5900   22.1820 N.3    32  VAL32      -0.1245
      2  CA        30.1350   14.0640   20.9960 C.3    32  VAL32       0.1561
      3  C         31.6090   13.6940   21.0360 C.2    32  VAL32       0.2260
      4  O         32.1880   13.3400   20.0100 O.2    32  VAL32      -0.2867
      5  CB        29.9790   15.5930   20.8260 C.3    32  VAL32       0.0252
      6  CG1       30.8600   16.0840   19.6850 C.3    32  VAL32       0.0019
      7  CG2       28.5160   15.9290   20.5400 C.3    32  VAL32       0.0019
      8  N         32.1390   10.3350   19.7230 N.3    35  GLU35      -0.1231
      9  CA        32.0330   10.2390   18.2640 C.3    35  GLU35       0.1699
     10  C         33.3300   10.7170   17.6320 C.2    35  GLU35       0.2592
     11  O         33.6670   10.3480   16.5060 O.2    35  GLU35      -0.2718
     12  CB        30.8720   11.0970   17.7520 C.3    35  GLU35       0.0402
     13  CG        29.5200   10.7600   18.3730 C.3    35  GLU35       0.1161
     14  CD        29.1630    9.2920   18.2320 C.2    35  GLU35       0.3649
     15  OE1       29.4640    8.7040   17.1700 O.co2  35  GLU35      -0.2457
     16  OE2       28.5740    8.7260   19.1790 O.co2  35  GLU35      -0.2457
     17  N         34.0510   11.5560   18.3670 N.am   36  CYS36      -0.1970
     18  CA        35.3270   12.0780   17.9090 C.3    36  CYS36       0.1712
     19  C         36.3060   10.9360   17.6270 C.2    36  CYS36       0.2296
     20  O         37.2010   11.0760   16.7920 O.2    36  CYS36      -0.2864
     21  CB        35.9320   12.9970   18.9720 C.3    36  CYS36       0.0983
     22  SG        35.4190   14.7550   18.9830 S.3    36  CYS36      -0.0798
     23  N         35.9440    8.4870   15.9780 N.3    38  ARG38      -0.1231
     24  CA        35.8170    8.1070   14.5760 C.3    38  ARG38       0.1694
     25  C         36.9680    8.6780   13.7450 C.2    38  ARG38       0.2591
     26  O         37.3110    8.1340   12.6900 O.2    38  ARG38      -0.2718
     27  CB        34.4790    8.5990   14.0070 C.3    38  ARG38       0.0321
     28  CG        33.2640    7.8330   14.5300 C.3    38  ARG38       0.0489
     29  CD        31.9440    8.5110   14.1550 C.3    38  ARG38       0.2205
     30  NE        30.8140    7.9050   14.8610 N.pl3  38  ARG38      -0.0865
     31  CZ        30.1960    6.7900   14.4830 C.cat  38  ARG38       0.5346
     32  NH1       30.5800    6.1520   13.3920 N.pl3  38  ARG38       0.1354
     33  NH2       29.2140    6.2890   15.2200 N.pl3  38  ARG38       0.1354
     34  N         37.5650    9.7690   14.2240 N.am   39  LEU39      -0.1980
     35  CA        38.6740   10.3980   13.5170 C.3    39  LEU39       0.1596
     36  C         40.0070    9.6580   13.6580 C.2    39  LEU39       0.2287
     37  O         40.9780   10.0060   12.9910 O.2    39  LEU39      -0.2864
     38  CB        38.8460   11.8470   13.9790 C.3    39  LEU39       0.0297
     39  CG        37.6420   12.7620   13.7450 C.3    39  LEU39       0.0022
     40  CD1       38.0570   14.2050   13.9980 C.3    39  LEU39       0.0001
     41  CD2       37.1370   12.6070   12.3180 C.3    39  LEU39       0.0001
     42  N         44.0420   12.7860   15.5280 N.3    43  MET43      -0.1245
     43  CA        42.9360   13.7040   15.2700 C.3    43  MET43       0.1570
     44  C         41.7510   13.5990   16.2280 C.2    43  MET43       0.2261
     45  O         41.0920   14.5990   16.5040 O.2    43  MET43      -0.2867
     46  CB        42.4460   13.5350   13.8270 C.3    43  MET43       0.0387
     47  CG        43.5200   13.8390   12.7720 C.3    43  MET43       0.0595
     48  SD        44.1760   15.5310   12.8870 S.3    43  MET43      -0.1393
     49  CE        45.6890   15.2540   13.7770 C.3    43  MET43       0.0692
     50  N         42.0520   15.8410   19.2840 N.3    46  ILE46      -0.1231
     51  CA        41.9930   17.2670   18.9750 C.3    46  ILE46       0.1692
     52  C         40.5090   17.6350   18.8950 C.2    46  ILE46       0.2592
     53  O         40.0710   18.6660   19.4110 O.2    46  ILE46      -0.2718
     54  CB        42.6650   17.5880   17.6250 C.3    46  ILE46       0.0266
     55  CG1       44.1460   17.2140   17.6810 C.3    46  ILE46       0.0019
     56  CG2       42.5080   19.0670   17.3100 C.3    46  ILE46       0.0020
     57  CD1       44.8770   17.4020   16.3590 C.3    46  ILE46       0.0001
     58  N         39.7480   16.7640   18.2410 N.am   47  CYS47      -0.1970
     59  CA        38.3100   16.9250   18.0750 C.3    47  CYS47       0.1712
     60  C         37.6610   17.0220   19.4520 C.2    47  CYS47       0.2296
     61  O         36.7400   17.8210   19.6670 O.2    47  CYS47      -0.2864
     62  CB        37.7760   15.7180   17.3030 C.3    47  CYS47       0.0983
     63  SG        35.9760   15.4460   17.1530 S.3    47  CYS47      -0.0798
     64  N         38.3580   20.3760   20.8550 N.3    50  TYR50      -0.1227
     65  CA        37.5320   21.3030   20.0840 C.3    50  TYR50       0.1736
     66  C         36.1080   21.3620   20.6310 C.2    50  TYR50       0.2595
     67  O         35.5420   22.4420   20.8160 O.2    50  TYR50      -0.2718
     68  CB        37.4690   20.8700   18.6120 C.3    50  TYR50       0.0548
     69  CG        36.5950   21.7670   17.7660 C.ar   50  TYR50      -0.0200
     70  CD1       37.1170   22.9100   17.1550 C.ar   50  TYR50      -0.0009
     71  CD2       35.2280   21.5160   17.6350 C.ar   50  TYR50      -0.0009
     72  CE1       36.2970   23.7830   16.4360 C.ar   50  TYR50       0.0417
     73  CE2       34.3980   22.3820   16.9250 C.ar   50  TYR50       0.0417
     74  CZ        34.9360   23.5140   16.3290 C.ar   50  TYR50       0.1957
     75  OH        34.1120   24.3800   15.6440 O.3    50  TYR50      -0.2866
     76  N         35.5320   20.1880   20.8660 N.am   51  ILE51      -0.1980
     77  CA        34.1740   20.0760   21.3770 C.3    51  ILE51       0.1595
     78  C         34.0870   20.6710   22.7650 C.2    51  ILE51       0.2287
     79  O         33.1070   21.3220   23.1170 O.2    51  ILE51      -0.2864
     80  CB        33.7290   18.5980   21.4500 C.3    51  ILE51       0.0276
     81  CG1       33.7260   17.9860   20.0430 C.3    51  ILE51       0.0022
     82  CG2       32.3540   18.4980   22.1010 C.3    51  ILE51       0.0022
     83  CD1       32.8210   18.7120   19.0490 C.3    51  ILE51       0.0001
@<TRIPOS>BOND
     1    41    39    1
     2    26    25    2
     3    47    48    1
     4    47    46    1
     5    48    49    1
     6    37    36    2
     7    32    31    1
     8    35    36    1
     9    35    38    1
    10    35    34    1
    11    39    38    1
    12    39    40    1
    13    25    34   am
    14    25    24    1
    15    46    43    1
    16    27    28    1
    17    27    24    1
    18    29    28    1
    19    29    30    1
    20    31    30    2
    21    31    33    1
    22    24    23    1
    23    43    42    1
    24    43    44    1
    25    75    74    1
    26    44    45    2
    27    74    72   ar
    28    74    73   ar
    29    57    55    1
    30    72    70   ar
    31    11    10    2
    32    20    19    2
    33    73    71   ar
    34    63    62    1
    35    63    22    1
    36    70    69   ar
    37    15    14   ar
    38    62    59    1
    39    56    54    1
    40    54    55    1
    41    54    51    1
    42    19    18    1
    43    10     9    1
    44    10    17   am
    45    71    69   ar
    46    12     9    1
    47    12    13    1
    48    69    68    1
    49    18    17    1
    50    18    21    1
    51    59    58    1
    52    59    60    1
    53    14    13    1
    54    14    16   ar
    55    58    52   am
    56     9     8    1
    57    68    65    1
    58    52    51    1
    59    52    53    2
    60    21    22    1
    61    51    50    1
    62    83    81    1
    63    60    61    2
    64     6     5    1
    65     4     3    2
    66    81    80    1
    67    65    66    1
    68    65    64    1
    69     7     5    1
    70    66    67    2
    71    66    76   am
    72     5     2    1
    73    76    77    1
    74     2     3    1
    75     2     1    1
    76    77    80    1
    77    77    78    1
    78    80    82    1
    79    78    79    2
