@<TRIPOS>MOLECULE
tmp/1n6bA01.pdb
 184 169 0 0 0
SMALL
GASTEIGER

@<TRIPOS>ATOM
      1  N        -12.7160   -1.8820  -24.4710 N.3    76  ILE76      -0.1231
      2  CA       -12.3160   -1.6620  -25.8580 C.3    76  ILE76       0.1692
      3  C        -13.2320   -2.4090  -26.8400 C.2    76  ILE76       0.2591
      4  O        -13.5590   -1.9070  -27.9110 O.2    76  ILE76      -0.2718
      5  CB       -10.8580   -2.0960  -26.0840 C.3    76  ILE76       0.0266
      6  CG1       -9.9350   -1.3910  -25.0840 C.3    76  ILE76       0.0019
      7  CG2      -10.4160   -1.7610  -27.4920 C.3    76  ILE76       0.0020
      8  CD1       -9.9260   -1.9970  -23.6750 C.3    76  ILE76       0.0001
      9  N        -13.6680   -3.6000  -26.4580 N.am   77  LEU77      -0.1980
     10  CA       -14.5540   -4.3990  -27.3030 C.3    77  LEU77       0.1596
     11  C        -16.0020   -3.9340  -27.1760 C.2    77  LEU77       0.2287
     12  O        -16.7900   -4.0630  -28.1140 O.2    77  LEU77      -0.2864
     13  CB       -14.4340   -5.8740  -26.9300 C.3    77  LEU77       0.0297
     14  CG       -12.9740   -6.3110  -26.9050 C.3    77  LEU77       0.0022
     15  CD1      -12.8790   -7.7650  -26.5560 C.3    77  LEU77       0.0001
     16  CD2      -12.3110   -6.0210  -28.2370 C.3    77  LEU77       0.0001
     17  N        -16.1240   -1.1340  -29.7740 N.3    80  VAL80      -0.1231
     18  CA       -16.0880   -1.6890  -31.1220 C.3    80  VAL80       0.1692
     19  C        -17.2200   -2.6700  -31.4570 C.2    80  VAL80       0.2592
     20  O        -17.9180   -2.4920  -32.4530 O.2    80  VAL80      -0.2718
     21  CB       -14.7430   -2.3950  -31.3760 C.3    80  VAL80       0.0266
     22  CG1      -14.7180   -3.0210  -32.7570 C.3    80  VAL80       0.0020
     23  CG2      -13.6010   -1.4200  -31.2080 C.3    80  VAL80       0.0020
     24  N        -17.3870   -3.7010  -30.6290 N.am   81  SER81      -0.1952
     25  CA       -18.4010   -4.7320  -30.8540 C.3    81  SER81       0.1924
     26  C        -19.8300   -4.3680  -30.4740 C.2    81  SER81       0.2314
     27  O        -20.7590   -5.0800  -30.8490 O.2    81  SER81      -0.2863
     28  CB       -17.9980   -6.0330  -30.1600 C.3    81  SER81       0.2116
     29  OG       -16.7520   -6.5100  -30.6580 O.3    81  SER81      -0.2180
     30  N        -17.9150  -13.5670  -29.9510 N.3    87  ALA87      -0.1231
     31  CA       -16.9030  -13.7450  -28.9050 C.3    87  ALA87       0.1694
     32  C        -17.1320  -13.0260  -27.5630 C.2    87  ALA87       0.2592
     33  O        -16.8730  -13.5980  -26.4840 O.2    87  ALA87      -0.2718
     34  CB       -15.4930  -13.4180  -29.4650 C.3    87  ALA87       0.0304
     35  N        -17.6520  -11.8030  -27.6160 N.am   88  PHE88      -0.1976
     36  CA       -17.8630  -11.0600  -26.3800 C.3    88  PHE88       0.1639
     37  C        -19.2850  -10.6200  -26.1500 C.2    88  PHE88       0.2290
     38  O        -19.5630   -9.7890  -25.2890 O.2    88  PHE88      -0.2864
     39  CB       -16.8650   -9.9020  -26.2780 C.3    88  PHE88       0.0560
     40  CG       -15.4330  -10.3620  -26.2580 C.ar   88  PHE88      -0.0200
     41  CD1      -14.7120  -10.4610  -27.4280 C.ar   88  PHE88      -0.0042
     42  CD2      -14.8450  -10.8040  -25.0720 C.ar   88  PHE88      -0.0042
     43  CE1      -13.4120  -11.0100  -27.4280 C.ar   88  PHE88      -0.0003
     44  CE2      -13.5500  -11.3550  -25.0590 C.ar   88  PHE88      -0.0003
     45  CZ       -12.8360  -11.4610  -26.2330 C.ar   88  PHE88      -0.0000
     46  N         -5.4350   -7.0160  -38.2540 N.3   175  LEU175     -0.1245
     47  CA        -5.8830   -8.1160  -37.4030 C.3   175  LEU175      0.1561
     48  C         -4.7850   -8.5890  -36.4620 C.2   175  LEU175      0.2260
     49  O         -5.0720   -9.0710  -35.3700 O.2   175  LEU175     -0.2867
     50  CB        -6.3520   -9.2970  -38.2560 C.3   175  LEU175      0.0270
     51  CG        -7.6990   -9.1630  -38.9520 C.3   175  LEU175      0.0019
     52  CD1       -7.8050  -10.2440  -40.0000 C.3   175  LEU175      0.0001
     53  CD2       -8.8370   -9.2760  -37.9440 C.3   175  LEU175      0.0001
     54  N         -3.8070   -5.5930  -33.8570 N.3   178  ASN178     -0.1225
     55  CA        -4.8320   -5.4660  -32.8330 C.3   178  ASN178      0.1785
     56  C         -4.7860   -6.5320  -31.7620 C.2   178  ASN178      0.2597
     57  O         -5.2560   -6.3190  -30.6570 O.2   178  ASN178     -0.2718
     58  CB        -6.2180   -5.4130  -33.4560 C.3   178  ASN178      0.1169
     59  CG        -6.8890   -4.0850  -33.2330 C.2   178  ASN178      0.2627
     60  OD1       -6.3840   -3.0390  -33.6560 O.2   178  ASN178     -0.2716
     61  ND2       -8.0210   -4.1070  -32.5400 N.am  178  ASN178     -0.0877
     62  N         -4.2690   -7.6990  -32.1010 N.am  179  VAL179     -0.1980
     63  CA        -4.1740   -8.7590  -31.1170 C.3   179  VAL179      0.1595
     64  C         -2.8250   -8.5860  -30.4130 C.2   179  VAL179      0.2287
     65  O         -2.6740   -8.9250  -29.2430 O.2   179  VAL179     -0.2864
     66  CB        -4.2830  -10.1670  -31.7770 C.3   179  VAL179      0.0276
     67  CG1       -2.9480  -10.5870  -32.3760 C.3   179  VAL179      0.0022
     68  CG2       -4.7770  -11.1940  -30.7660 C.3   179  VAL179      0.0022
     69  N         -3.3200   -5.5440  -27.9950 N.3   182  LEU182     -0.1245
     70  CA        -4.3040   -5.8650  -26.9650 C.3   182  LEU182      0.1561
     71  C         -3.7980   -7.0210  -26.1060 C.2   182  LEU182      0.2260
     72  O         -4.3260   -7.2970  -25.0280 O.2   182  LEU182     -0.2867
     73  CB        -5.6210   -6.2380  -27.6430 C.3   182  LEU182      0.0270
     74  CG        -6.9870   -6.0410  -26.9790 C.3   182  LEU182      0.0019
     75  CD1       -7.4800   -7.3230  -26.3310 C.3   182  LEU182      0.0001
     76  CD2       -6.9560   -4.8660  -26.0060 C.3   182  LEU182      0.0001
     77  N         -7.1610  -10.5420  -19.7800 N.3   187  LEU187     -0.1245
     78  CA        -8.0150   -9.5420  -20.4260 C.3   187  LEU187      0.1561
     79  C         -8.8330   -8.6360  -19.5120 C.2   187  LEU187      0.2260
     80  O         -9.1750   -7.5040  -19.8820 O.2   187  LEU187     -0.2867
     81  CB        -8.9070  -10.1990  -21.4840 C.3   187  LEU187      0.0270
     82  CG        -8.3320  -10.1560  -22.9050 C.3   187  LEU187      0.0019
     83  CD1       -6.8640  -10.5750  -22.9180 C.3   187  LEU187      0.0001
     84  CD2       -9.1530  -11.0570  -23.8160 C.3   187  LEU187      0.0001
     85  N         -6.3610    0.8920  -31.9870 N.3   207  LEU207     -0.1245
     86  CA        -7.2980   -0.2300  -31.9710 C.3   207  LEU207      0.1561
     87  C         -8.5870    0.0960  -32.7330 C.2   207  LEU207      0.2260
     88  O         -9.0160   -0.6880  -33.5900 O.2   207  LEU207     -0.2867
     89  CB        -7.6060   -0.6460  -30.5240 C.3   207  LEU207      0.0270
     90  CG        -6.4390   -1.2550  -29.7160 C.3   207  LEU207      0.0019
     91  CD1       -6.8590   -1.5130  -28.2870 C.3   207  LEU207      0.0001
     92  CD2       -5.9650   -2.5600  -30.3460 C.3   207  LEU207      0.0001
     93  N         -9.8510   -1.5150  -36.1050 N.3   211  ALA211     -0.1245
     94  CA       -11.1860   -2.0840  -36.0030 C.3   211  ALA211      0.1562
     95  C        -12.0560   -1.5120  -37.1130 C.2   211  ALA211      0.2260
     96  O        -12.7290   -2.2540  -37.8230 O.2   211  ALA211     -0.2867
     97  CB       -11.7870   -1.7730  -34.6600 C.3   211  ALA211      0.0290
     98  N        -11.0480   -2.7270  -40.5950 N.3   214  ILE214     -0.1245
     99  CA       -11.5630   -4.0880  -40.6910 C.3   214  ILE214      0.1561
    100  C        -13.0670   -4.0390  -40.9940 C.2   214  ILE214      0.2260
    101  O        -13.5530   -4.7510  -41.8720 O.2   214  ILE214     -0.2867
    102  CB       -11.3040   -4.8530  -39.3630 C.3   214  ILE214      0.0252
    103  CG1       -9.7990   -5.0450  -39.1560 C.3   214  ILE214      0.0019
    104  CG2      -12.0180   -6.2000  -39.3560 C.3   214  ILE214      0.0019
    105  CD1       -9.4240   -5.4200  -37.7400 C.3   214  ILE214      0.0001
    106  N        -15.9570   -9.7280  -38.1100 N.3   263  SER263     -0.1202
    107  CA       -14.7260   -9.2330  -37.4840 C.3   263  SER263      0.2020
    108  C        -14.3110  -10.2160  -36.4200 C.2   263  SER263      0.2618
    109  O        -13.1400  -10.5640  -36.3230 O.2   263  SER263     -0.2717
    110  CB       -14.9260   -7.8550  -36.8440 C.3   263  SER263      0.2103
    111  OG       -14.9880   -6.8480  -37.8460 O.3   263  SER263     -0.2182
    112  N        -15.2810  -10.6900  -35.6430 N.am  264  ASP264     -0.1973
    113  CA       -14.9930  -11.6600  -34.5990 C.3   264  ASP264      0.1709
    114  C        -14.3430  -12.8920  -35.1760 C.2   264  ASP264      0.2293
    115  O        -13.3280  -13.3540  -34.6570 O.2   264  ASP264     -0.2864
    116  CB       -16.2670  -12.0750  -33.8690 C.3   264  ASP264      0.1436
    117  CG       -16.6310  -11.1350  -32.7280 C.2   264  ASP264      0.3671
    118  OD1      -17.7460  -11.3020  -32.1890 O.co2 264  ASP264     -0.2456
    119  OD2      -15.8130  -10.2530  -32.3580 O.co2 264  ASP264     -0.2456
    120  N        -10.8720  -12.1030  -36.3680 N.3   267  GLY267     -0.1210
    121  CA       -10.0950  -11.8940  -35.1610 C.3   267  GLY267      0.1956
    122  C         -9.8150  -13.1750  -34.4020 C.2   267  GLY267      0.2611
    123  O         -8.6680  -13.4470  -34.0390 O.2   267  GLY267     -0.2717
    124  N        -10.8410  -13.9860  -34.1930 N.am  268  ALA268     -0.1979
    125  CA       -10.6620  -15.2410  -33.4770 C.3   268  ALA268      0.1597
    126  C         -9.9940  -16.3810  -34.2820 C.2   268  ALA268      0.2287
    127  O         -9.3030  -17.2230  -33.7040 O.2   268  ALA268     -0.2864
    128  CB       -12.0030  -15.7120  -32.9320 C.3   268  ALA268      0.0319
    129  N         -5.1000  -15.3980  -36.1670 N.3   271  GLU271     -0.1231
    130  CA        -3.9100  -15.4370  -35.3320 C.3   271  GLU271      0.1699
    131  C         -3.6970  -16.7660  -34.6100 C.2   271  GLU271      0.2592
    132  O         -2.5500  -17.2300  -34.4630 O.2   271  GLU271     -0.2718
    133  CB        -3.9350  -14.2640  -34.3380 C.3   271  GLU271      0.0402
    134  CG        -2.5470  -13.7810  -33.9000 C.3   271  GLU271      0.1161
    135  CD        -1.6540  -13.3260  -35.0720 C.2   271  GLU271      0.3649
    136  OE1       -0.4650  -13.7420  -35.1110 O.co2 271  GLU271     -0.2457
    137  OE2       -2.1320  -12.5580  -35.9490 O.co2 271  GLU271     -0.2457
    138  N         -4.7850  -17.3420  -34.1120 N.am  272  THR272     -0.1953
    139  CA        -4.7420  -18.6370  -33.4310 C.3   272  THR272      0.1897
    140  C         -4.2790  -19.7330  -34.4040 C.2   272  THR272      0.2313
    141  O         -3.3720  -20.5330  -34.1120 O.2   272  THR272     -0.2863
    142  CB        -6.1300  -19.0570  -32.9700 C.3   272  THR272      0.1794
    143  OG1       -7.0580  -18.8040  -34.0320 O.3   272  THR272     -0.2208
    144  CG2       -6.5670  -18.2810  -31.7120 C.3   272  THR272      0.0378
    145  N         -3.9340  -21.1190  -25.6060 N.3   333  LEU333     -0.1245
    146  CA        -4.6120  -20.1930  -24.6990 C.3   333  LEU333      0.1561
    147  C         -4.6180  -20.8120  -23.3300 C.2   333  LEU333      0.2260
    148  O         -5.6130  -21.3710  -22.9120 O.2   333  LEU333     -0.2867
    149  CB        -6.0280  -19.8970  -25.1550 C.3   333  LEU333      0.0270
    150  CG        -6.1500  -19.0620  -26.4350 C.3   333  LEU333      0.0019
    151  CD1       -6.0810  -19.9870  -27.6380 C.3   333  LEU333      0.0001
    152  CD2       -7.4730  -18.3550  -26.4730 C.3   333  LEU333      0.0001
    153  N        -10.4310  -18.1940  -22.6860 N.3   337  LEU337     -0.1245
    154  CA       -10.8720  -16.8260  -22.8600 C.3   337  LEU337      0.1561
    155  C        -11.6940  -16.6690  -21.5740 C.2   337  LEU337      0.2260
    156  O        -12.2970  -17.6310  -21.0920 O.2   337  LEU337     -0.2867
    157  CB       -11.7800  -16.6400  -24.0820 C.3   337  LEU337      0.0270
    158  CG       -11.2210  -16.3660  -25.4840 C.3   337  LEU337      0.0019
    159  CD1      -12.3790  -15.9930  -26.3920 C.3   337  LEU337      0.0001
    160  CD2      -10.2200  -15.2500  -25.4730 C.3   337  LEU337      0.0001
    161  N        -14.8930  -23.1610  -28.7630 N.3   406  CYS406     -0.1235
    162  CA       -14.5900  -22.6270  -30.1050 C.3   406  CYS406      0.1677
    163  C        -15.5830  -23.0570  -31.1790 C.2   406  CYS406      0.2270
    164  O        -15.9560  -24.2270  -31.2670 O.2   406  CYS406     -0.2867
    165  CB       -13.1800  -23.0230  -30.5620 C.3   406  CYS406      0.0956
    166  SG       -12.6780  -22.2250  -32.0980 S.3   406  CYS406     -0.0801
    167  N         -3.0720  -13.4540  -24.2030 N.3   447  PHE447     -0.1227
    168  CA        -3.7970  -14.6700  -23.8780 C.3   447  PHE447      0.1736
    169  C         -3.3620  -15.8040  -24.8180 C.2   447  PHE447      0.2595
    170  O         -3.8370  -16.9270  -24.6950 O.2   447  PHE447     -0.2718
    171  CB        -5.3040  -14.4210  -24.0360 C.3   447  PHE447      0.0547
    172  CG        -5.6700  -13.5540  -25.2240 C.ar  447  PHE447     -0.0202
    173  CD1       -4.7170  -13.1490  -26.1550 C.ar  447  PHE447     -0.0042
    174  CD2       -6.9670  -13.1090  -25.3810 C.ar  447  PHE447     -0.0042
    175  CE1       -5.0460  -12.3200  -27.2050 C.ar  447  PHE447     -0.0003
    176  CE2       -7.3080  -12.2740  -26.4340 C.ar  447  PHE447     -0.0003
    177  CZ        -6.3440  -11.8800  -27.3450 C.ar  447  PHE447     -0.0000
    178  N         -2.4760  -15.4820  -25.7620 N.am  448  VAL448     -0.1980
    179  CA        -1.9720  -16.4270  -26.7510 C.3   448  VAL448      0.1595
    180  C         -0.4730  -16.7150  -26.6100 C.2   448  VAL448      0.2287
    181  O          0.3440  -15.7900  -26.6240 O.2   448  VAL448     -0.2864
    182  CB        -2.2420  -15.9050  -28.1860 C.3   448  VAL448      0.0276
    183  CG1       -1.6850  -16.8620  -29.2120 C.3   448  VAL448      0.0022
    184  CG2       -3.7340  -15.7340  -28.4250 C.3   448  VAL448      0.0022
@<TRIPOS>BOND
     1   101   100    2
     2   100    99    1
     3    99    98    1
     4    99   102    1
     5    52    51    1
     6   102   104    1
     7   102   103    1
     8   103   105    1
     9    51    50    1
    10    51    53    1
    11    50    47    1
    12    46    47    1
    13   106   107    1
    14   111   110    1
    15    96    95    2
    16   107   110    1
    17   107   108    1
    18    47    48    1
    19    95    94    1
    20    48    49    2
    21   108   109    2
    22   108   112   am
    23   120   121    1
    24   129   130    1
    25    93    94    1
    26    94    97    1
    27   137   135   ar
    28   112   113    1
    29   130   131    1
    30   130   133    1
    31   114   115    2
    32   114   113    1
    33   121   122    1
    34   136   135   ar
    35   135   134    1
    36   131   132    2
    37   131   138   am
    38   113   116    1
    39   140   141    2
    40   140   139    1
    41   122   124   am
    42   122   123    2
    43   133   134    1
    44   126   127    2
    45   126   125    1
    46   124   125    1
    47   138   139    1
    48   143   142    1
    49   116   117    1
    50    54    55    1
    51    60    59    2
    52    88    87    2
    53   125   128    1
    54    58    59    1
    55    58    55    1
    56   139   142    1
    57    59    61   am
    58   142   144    1
    59    55    56    1
    60    22    21    1
    61    87    86    1
    62   117   119   ar
    63   117   118   ar
    64    20    19    2
    65    67    66    1
    66    62    56   am
    67    62    63    1
    68   166   165    1
    69    85    86    1
    70    86    89    1
    71    66    63    1
    72    66    68    1
    73    56    57    2
    74    19    18    1
    75    19    24   am
    76    21    23    1
    77    21    18    1
    78   164   163    2
    79   163   162    1
    80    18    17    1
    81    63    64    1
    82    25    24    1
    83    25    26    1
    84    25    28    1
    85    27    26    2
    86    29    28    1
    87   165   162    1
    88    89    90    1
    89    64    65    2
    90    92    90    1
    91   162   161    1
    92    30    31    1
    93    90    91    1
    94    34    31    1
    95   183   182    1
    96    31    32    1
    97   184   182    1
    98    16    14    1
    99   182   179    1
   100    12    11    2
   101    69    70    1
   102     4     3    2
   103    73    74    1
   104    73    70    1
   105   151   150    1
   106    35    32   am
   107    35    36    1
   108    32    33    2
   109     7     5    1
   110    41    43   ar
   111    41    40   ar
   112    43    45   ar
   113   177   175   ar
   114   177   176   ar
   115    10    11    1
   116    10    13    1
   117    10     9    1
   118   175   173   ar
   119    74    75    1
   120    74    76    1
   121    70    71    1
   122    13    14    1
   123    14    15    1
   124     3     9   am
   125     3     2    1
   126   179   180    1
   127   179   178    1
   128   181   180    2
   129   152   150    1
   130   150   149    1
   131   176   174   ar
   132   159   158    1
   133    36    39    1
   134    36    37    1
   135    39    40    1
   136    40    42   ar
   137    45    44   ar
   138   173   172   ar
   139    37    38    2
   140    71    72    2
   141     5     2    1
   142     5     6    1
   143     2     1    1
   144   178   169   am
   145   145   146    1
   146   158   160    1
   147   158   157    1
   148   174   172   ar
   149   172   171    1
   150   149   146    1
   151     6     8    1
   152    42    44   ar
   153   169   170    2
   154   169   168    1
   155   146   147    1
   156   167   168    1
   157   157   154    1
   158   171   168    1
   159    84    82    1
   160   147   148    2
   161    83    82    1
   162    82    81    1
   163   154   153    1
   164   154   155    1
   165   155   156    2
   166    81    78    1
   167    78    77    1
   168    78    79    1
   169    80    79    2
