@<TRIPOS>MOLECULE
tmp/1n6cA00.pdb
 166 164 0 0 0
SMALL
GASTEIGER

@<TRIPOS>ATOM
      1  N         17.2330   48.8980   24.8500 N.3   145  ILE145     -0.1231
      2  CA        16.4700   48.8520   26.0930 C.3   145  ILE145      0.1692
      3  C         15.5970   47.5940   26.0910 C.2   145  ILE145      0.2593
      4  O         15.0640   47.2040   25.0490 O.2   145  ILE145     -0.2718
      5  CB        15.5790   50.1180   26.2330 C.3   145  ILE145      0.0266
      6  CG1       16.4660   51.3670   26.2650 C.3   145  ILE145      0.0019
      7  CG2       14.7310   50.0470   27.5050 C.3   145  ILE145      0.0020
      8  CD1       15.7080   52.6670   26.1110 C.3   145  ILE145      0.0001
      9  N         15.4570   46.9590   27.2520 N.am  146  SER146     -0.1938
     10  CA        14.6510   45.7400   27.3670 C.3   146  SER146      0.2055
     11  C         13.1540   45.9760   27.2050 C.2   146  SER146      0.2644
     12  O         12.5930   46.9080   27.7810 O.2   146  SER146     -0.2714
     13  CB        14.8820   45.0600   28.7250 C.3   146  SER146      0.2130
     14  OG        16.1510   44.4380   28.7890 O.3   146  SER146     -0.2179
     15  N         12.5160   45.1150   26.4190 N.am  147  SER147     -0.1935
     16  CA        11.0780   45.1980   26.2090 C.3   147  SER147      0.2055
     17  C         10.6290   46.6190   25.9070 C.2   147  SER147      0.2643
     18  O          9.7280   47.1420   26.5610 O.2   147  SER147     -0.2714
     19  CB        10.3550   44.6960   27.4600 C.3   147  SER147      0.2130
     20  OG        10.8500   43.4230   27.8490 O.3   147  SER147     -0.2179
     21  N         11.2620   47.2340   24.9120 N.am  148  ALA148     -0.1963
     22  CA        10.9390   48.6000   24.5300 C.3   148  ALA148      0.1728
     23  C         10.7300   48.7060   23.0240 C.2   148  ALA148      0.2617
     24  O         10.8760   49.7820   22.4450 O.2   148  ALA148     -0.2715
     25  CB        12.0580   49.5380   24.9760 C.3   148  ALA148      0.0334
     26  N         10.3950   47.5820   22.3980 N.am  149  GLY149     -0.1940
     27  CA        10.1570   47.5660   20.9640 C.3   149  GLY149      0.2014
     28  C         11.3420   48.0570   20.1570 C.2   149  GLY149      0.2638
     29  O         12.4870   47.7240   20.4580 O.2   149  GLY149     -0.2714
     30  N         11.0700   48.8490   19.1240 N.am  150  GLU150     -0.1977
     31  CA        12.1300   49.3880   18.2790 C.3   150  GLU150      0.1602
     32  C         12.6560   50.7160   18.8170 C.2   150  GLU150      0.2287
     33  O         11.9600   51.4220   19.5480 O.2   150  GLU150     -0.2864
     34  CB        11.6210   49.5770   16.8500 C.3   150  GLU150      0.0415
     35  CG        11.2060   48.2790   16.1950 C.3   150  GLU150      0.1163
     36  CD        10.7270   48.4620   14.7730 C.2   150  GLU150      0.3649
     37  OE1        9.7890   49.2590   14.5540 O.co2 150  GLU150     -0.2457
     38  OE2       11.2920   47.8010   13.8710 O.co2 150  GLU150     -0.2457
     39  N          9.8980   64.4890   13.4890 N.3   167  TYR167     -0.1241
     40  CA         8.7230   63.8880   14.0850 C.3   167  TYR167      0.1605
     41  C          7.4860   64.4200   13.3890 C.2   167  TYR167      0.2264
     42  O          6.8970   65.4130   13.8160 O.2   167  TYR167     -0.2867
     43  CB         8.6590   64.2180   15.5730 C.3   167  TYR167      0.0534
     44  CG         7.8620   63.2280   16.3760 C.ar  167  TYR167     -0.0201
     45  CD1        8.4820   62.4280   17.3350 C.ar  167  TYR167     -0.0009
     46  CD2        6.4890   63.0730   16.1720 C.ar  167  TYR167     -0.0009
     47  CE1        7.7580   61.4930   18.0760 C.ar  167  TYR167      0.0417
     48  CE2        5.7500   62.1340   16.9090 C.ar  167  TYR167      0.0417
     49  CZ         6.3960   61.3520   17.8590 C.ar  167  TYR167      0.1957
     50  OH         5.6830   60.4380   18.6040 O.3   167  TYR167     -0.2866
     51  N          0.4350   56.2690   22.5480 N.3   186  GLY186     -0.1210
     52  CA         1.8460   55.9430   22.6190 C.3   186  GLY186      0.1956
     53  C          2.7460   56.8270   21.7620 C.2   186  GLY186      0.2611
     54  O          3.9160   57.0080   22.0980 O.2   186  GLY186     -0.2717
     55  N          2.2140   57.3870   20.6740 N.am  187  ASN187     -0.1974
     56  CA         3.0140   58.2200   19.7680 C.3   187  ASN187      0.1688
     57  C          2.6230   59.6960   19.6850 C.2   187  ASN187      0.2292
     58  O          3.1240   60.4270   18.8300 O.2   187  ASN187     -0.2864
     59  CB         2.9870   57.6290   18.3520 C.3   187  ASN187      0.1181
     60  CG         3.8470   56.3730   18.2140 C.2   187  ASN187      0.2629
     61  OD1        3.7640   55.6620   17.2110 O.2   187  ASN187     -0.2716
     62  ND2        4.6830   56.1070   19.2100 N.am  187  ASN187     -0.0877
     63  N          2.8290   53.3520   12.7140 N.3   204  ASN204     -0.1240
     64  CA         3.8760   53.1610   13.7080 C.3   204  ASN204      0.1653
     65  C          4.7990   52.0160   13.2800 C.2   204  ASN204      0.2266
     66  O          5.7600   51.6880   13.9800 O.2   204  ASN204     -0.2867
     67  CB         3.2720   52.8540   15.0800 C.3   204  ASN204      0.1155
     68  CG         2.5390   51.5250   15.1180 C.2   204  ASN204      0.2627
     69  OD1        2.1950   51.0290   16.1830 O.2   204  ASN204     -0.2716
     70  ND2        2.3040   50.9420   13.9570 N.am  204  ASN204     -0.0877
     71  N          9.2890   59.2660   15.7250 N.3   215  HIS215     -0.1226
     72  CA         8.4400   58.5070   16.6390 C.3   215  HIS215      0.1752
     73  C          9.0530   57.1800   17.0710 C.2   215  HIS215      0.2596
     74  O          8.4440   56.4550   17.8510 O.2   215  HIS215     -0.2718
     75  CB         7.0790   58.2210   15.9990 C.3   215  HIS215      0.0759
     76  CG         7.1770   57.5070   14.6870 C.ar  215  HIS215      0.0818
     77  ND1        7.5970   58.1320   13.5330 N.ar  215  HIS215     -0.2268
     78  CD2        6.9410   56.2160   14.3530 C.ar  215  HIS215      0.1154
     79  CE1        7.6120   57.2570   12.5420 C.ar  215  HIS215      0.1986
     80  NE2        7.2180   56.0880   13.0130 N.ar  215  HIS215     -0.2212
     81  N         10.2370   56.8510   16.5600 N.am  216  LYS216     -0.1966
     82  CA        10.8930   55.5960   16.9290 C.3   216  LYS216      0.1728
     83  C         11.8910   55.7770   18.0710 C.2   216  LYS216      0.2616
     84  O         12.4370   54.8060   18.6040 O.2   216  LYS216     -0.2715
     85  CB        11.6020   54.9820   15.7130 C.3   216  LYS216      0.0311
     86  CG        10.6550   54.2950   14.7220 C.3   216  LYS216      0.0038
     87  CD         9.9740   53.1040   15.3830 C.3   216  LYS216      0.0206
     88  CE         8.8760   52.5280   14.5190 C.3   216  LYS216      0.1093
     89  NZ         8.2160   51.3720   15.1860 N.3   216  LYS216     -0.1314
     90  N         12.1250   57.0250   18.4530 N.am  217  ALA217     -0.1963
     91  CA        13.0570   57.3040   19.5350 C.3   217  ALA217      0.1728
     92  C         12.4260   56.9650   20.8930 C.2   217  ALA217      0.2616
     93  O         11.3630   57.4780   21.2400 O.2   217  ALA217     -0.2715
     94  CB        13.4760   58.7710   19.4930 C.3   217  ALA217      0.0334
     95  N         13.0880   56.0940   21.6480 N.am  218  ASN218     -0.1958
     96  CA        12.6060   55.6850   22.9670 C.3   218  ASN218      0.1819
     97  C         12.9780   56.6800   24.0530 C.2   218  ASN218      0.2621
     98  O         13.7290   57.6250   23.8170 O.2   218  ASN218     -0.2715
     99  CB        13.1750   54.3210   23.3450 C.3   218  ASN218      0.1195
    100  CG        12.4050   53.1820   22.7340 C.2   218  ASN218      0.2630
    101  OD1       12.9150   52.0680   22.6300 O.2   218  ASN218     -0.2716
    102  ND2       11.1660   53.4420   22.3410 N.am  218  ASN218     -0.0877
    103  N         12.4650   56.4410   25.2540 N.am  219  HIS219     -0.1973
    104  CA        12.7260   57.3210   26.3860 C.3   219  HIS219      0.1656
    105  C         13.9330   56.9460   27.2530 C.2   219  HIS219      0.2291
    106  O         14.3480   55.7880   27.3280 O.2   219  HIS219     -0.2864
    107  CB        11.4680   57.4090   27.2650 C.3   219  HIS219      0.0771
    108  CG        11.7120   58.0150   28.6140 C.ar  219  HIS219      0.0820
    109  ND1       12.1290   57.2740   29.7000 N.ar  219  HIS219     -0.2267
    110  CD2       11.6300   59.2970   29.0440 C.ar  219  HIS219      0.1154
    111  CE1       12.2940   58.0720   30.7390 C.ar  219  HIS219      0.1986
    112  NE2       11.9980   59.3050   30.3680 N.ar  219  HIS219     -0.2212
    113  N         13.5390   67.0180   22.0150 N.3   227  TYR227     -0.1241
    114  CA        12.5970   67.3390   20.9520 C.3   227  TYR227      0.1605
    115  C         12.7780   68.8300   20.6830 C.2   227  TYR227      0.2264
    116  O         12.8650   69.6290   21.6140 O.2   227  TYR227     -0.2867
    117  CB        11.1650   67.0830   21.3990 C.3   227  TYR227      0.0534
    118  CG        10.8050   65.6250   21.5170 C.ar  227  TYR227     -0.0201
    119  CD1       10.8950   64.7750   20.4140 C.ar  227  TYR227     -0.0009
    120  CD2       10.3500   65.0960   22.7240 C.ar  227  TYR227     -0.0009
    121  CE1       10.5390   63.4340   20.5100 C.ar  227  TYR227      0.0417
    122  CE2        9.9920   63.7530   22.8330 C.ar  227  TYR227      0.0417
    123  CZ        10.0870   62.9300   21.7240 C.ar  227  TYR227      0.1957
    124  OH         9.7260   61.6030   21.8220 O.3   227  TYR227     -0.2866
    125  N         10.8010   61.9030   27.5510 N.3   257  TYR257     -0.1241
    126  CA         9.3930   62.1490   27.2370 C.3   257  TYR257      0.1605
    127  C          8.8310   63.1740   28.2190 C.2   257  TYR257      0.2264
    128  O          9.3260   63.3090   29.3380 O.2   257  TYR257     -0.2867
    129  CB         8.5860   60.8460   27.3290 C.3   257  TYR257      0.0534
    130  CG         8.8600   59.8340   26.2300 C.ar  257  TYR257     -0.0201
    131  CD1        9.9160   60.0020   25.3360 C.ar  257  TYR257     -0.0009
    132  CD2        8.0700   58.6890   26.1040 C.ar  257  TYR257     -0.0009
    133  CE1       10.1800   59.0550   24.3420 C.ar  257  TYR257      0.0417
    134  CE2        8.3240   57.7360   25.1150 C.ar  257  TYR257      0.0417
    135  CZ         9.3800   57.9260   24.2370 C.ar  257  TYR257      0.1957
    136  OH         9.6280   56.9990   23.2520 O.3   257  TYR257     -0.2866
    137  N          2.4740   56.2860   31.3150 N.3   270  PRO270     -0.2116
    138  CA         2.3620   54.8310   31.1680 C.3   270  PRO270      0.1372
    139  C          3.0230   54.0730   32.3100 C.2   270  PRO270      0.2244
    140  O          3.8600   54.6180   33.0270 O.2   270  PRO270     -0.2868
    141  CB         3.0320   54.5670   29.8200 C.3   270  PRO270      0.0268
    142  CG         4.0110   55.7090   29.6910 C.3   270  PRO270      0.0207
    143  CD         3.2010   56.8750   30.1780 C.3   270  PRO270      0.0892
    144  N          5.1590   51.4450   32.1820 N.3   272  TRP272     -0.1241
    145  CA         6.5880   51.2130   31.9790 C.3   272  TRP272      0.1605
    146  C          7.4240   52.4210   32.4010 C.2   272  TRP272      0.2264
    147  O          8.5200   52.2700   32.9300 O.2   272  TRP272     -0.2867
    148  CB         6.8920   50.8570   30.5120 C.3   272  TRP272      0.0550
    149  CG         6.5690   51.9320   29.5210 C.ar  272  TRP272      0.0003
    150  CD1        5.4410   52.0330   28.7590 C.ar  272  TRP272      0.0946
    151  CD2        7.3680   53.0820   29.2100 C.ar  272  TRP272      0.0152
    152  NE1        5.4850   53.1750   27.9930 N.ar  272  TRP272     -0.2442
    153  CE2        6.6560   53.8380   28.2520 C.ar  272  TRP272      0.0810
    154  CE3        8.6140   53.5500   29.6520 C.ar  272  TRP272      0.0012
    155  CZ2        7.1490   55.0390   27.7260 C.ar  272  TRP272      0.0191
    156  CZ3        9.1010   54.7440   29.1320 C.ar  272  TRP272      0.0001
    157  CH2        8.3690   55.4740   28.1780 C.ar  272  TRP272      0.0015
    158  N         10.3930   52.6300   35.5790 N.3   276  GLU276     -0.1245
    159  CA        11.7520   53.1120   35.3550 C.3   276  GLU276      0.1567
    160  C         12.0450   54.4000   36.1160 C.2   276  GLU276      0.2260
    161  O         13.1840   54.6530   36.5010 O.2   276  GLU276     -0.2867
    162  CB        11.9930   53.3310   33.8590 C.3   276  GLU276      0.0388
    163  CG        11.7540   52.0910   33.0120 C.3   276  GLU276      0.1160
    164  CD        12.1260   52.2950   31.5550 C.2   276  GLU276      0.3649
    165  OE1       11.9010   51.3630   30.7460 O.co2 276  GLU276     -0.2457
    166  OE2       12.6480   53.3850   31.2240 O.co2 276  GLU276     -0.2457
@<TRIPOS>BOND
     1    79    80   ar
     2    79    77   ar
     3    63    64    1
     4    80    78   ar
     5    65    64    1
     6    65    66    2
     7    41    42    2
     8    41    40    1
     9    39    40    1
    10    77    76   ar
    11    64    67    1
    12    38    36   ar
    13    70    68   am
    14    40    43    1
    15    78    76   ar
    16    88    89    1
    17    88    87    1
    18    37    36   ar
    19    76    75    1
    20    86    87    1
    21    86    85    1
    22    36    35    1
    23    67    68    1
    24    68    69    2
    25    43    44    1
    26    85    82    1
    27    71    72    1
    28    75    72    1
    29    46    44   ar
    30    46    48   ar
    31    35    34    1
    32    44    45   ar
    33    81    82    1
    34    81    73   am
    35    72    73    1
    36    34    31    1
    37    48    49   ar
    38    82    83    1
    39    73    74    2
    40    61    60    2
    41    45    47   ar
    42    49    47   ar
    43    49    50    1
    44    83    90   am
    45    83    84    2
    46    60    59    1
    47    60    62   am
    48    31    32    1
    49    31    30    1
    50    59    56    1
    51    90    91    1
    52    32    33    2
    53    58    57    2
    54    30    28   am
    55    94    91    1
    56    91    92    1
    57    57    56    1
    58    56    55    1
    59    28    29    2
    60    28    27    1
    61   119   121   ar
    62   119   118   ar
    63   121   123   ar
    64    55    53   am
    65   115   114    1
    66   115   116    2
    67    92    93    2
    68    92    95   am
    69   114   117    1
    70   114   113    1
    71    27    26    1
    72   117   118    1
    73   118   120   ar
    74    95    96    1
    75   123   124    1
    76   123   122   ar
    77    53    54    2
    78    53    52    1
    79   102   100   am
    80    26    23   am
    81    24    23    2
    82    51    52    1
    83   101   100    2
    84   120   122   ar
    85   100    99    1
    86    96    99    1
    87    96    97    1
    88    23    22    1
    89   136   135    1
    90    98    97    2
    91    97   103   am
    92   135   133   ar
    93   135   134   ar
    94   133   131   ar
    95    22    21    1
    96    22    25    1
    97     1     2    1
    98    21    17   am
    99     4     3    2
   100   134   132   ar
   101   103   104    1
   102   131   130   ar
   103    17    16    1
   104    17    18    2
   105     3     2    1
   106     3     9   am
   107     2     5    1
   108   132   130   ar
   109     8     6    1
   110    16    15    1
   111    16    19    1
   112   130   129    1
   113     5     6    1
   114     5     7    1
   115   104   105    1
   116   104   107    1
   117    15    11   am
   118    11    10    1
   119    11    12    2
   120   126   129    1
   121   126   125    1
   122   126   127    1
   123     9    10    1
   124   105   106    2
   125   107   108    1
   126    10    13    1
   127    19    20    1
   128   155   157   ar
   129   155   153   ar
   130   152   153   ar
   131   152   150   ar
   132   157   156   ar
   133   127   128    2
   134   153   151   ar
   135   108   110   ar
   136   108   109   ar
   137    13    14    1
   138   150   149   ar
   139   110   112   ar
   140   156   154   ar
   141   151   149   ar
   142   151   154   ar
   143   149   148    1
   144   142   141    1
   145   142   143    1
   146   109   111   ar
   147   141   138    1
   148   143   137    1
   149   112   111   ar
   150   148   145    1
   151   165   164   ar
   152   138   137    1
   153   138   139    1
   154   166   164   ar
   155   164   163    1
   156   145   144    1
   157   145   146    1
   158   139   140    2
   159   146   147    2
   160   163   162    1
   161   162   159    1
   162   159   158    1
   163   159   160    1
   164   160   161    2
