@<TRIPOS>MOLECULE
tmp/1n6oA00.pdb
 205 202 0 0 0
SMALL
GASTEIGER

@<TRIPOS>ATOM
      1  N         -0.1750   -5.7310   40.4550 N.3    15  SER15      -0.1202
      2  CA         0.5480   -5.1110   41.5600 C.3    15  SER15       0.2020
      3  C          1.9760   -5.6620   41.6450 C.2    15  SER15       0.2619
      4  O          2.1990   -6.8590   41.4420 O.2    15  SER15      -0.2717
      5  CB        -0.1530   -5.3940   42.8920 C.3    15  SER15       0.2103
      6  OG         0.5800   -4.8090   43.9570 O.3    15  SER15      -0.2182
      7  N          2.9190   -4.7780   41.9500 N.am   16  LYS16      -0.1965
      8  CA         4.3360   -5.1230   42.1570 C.3    16  LYS16       0.1728
      9  C          5.2100   -5.2620   40.9310 C.2    16  LYS16       0.2616
     10  O          6.3870   -5.5700   41.0600 O.2    16  LYS16      -0.2715
     11  CB         4.4730   -6.4220   42.9650 C.3    16  LYS16       0.0311
     12  CG         3.6990   -6.4880   44.2710 C.3    16  LYS16       0.0038
     13  CD         4.0350   -5.3450   45.1880 C.3    16  LYS16       0.0206
     14  CE         3.4220   -5.5860   46.5780 C.3    16  LYS16       0.1093
     15  NZ         3.5840   -4.4030   47.4530 N.3    16  LYS16      -0.1314
     16  N          4.6510   -5.0600   39.7490 N.am   17  VAL17      -0.1963
     17  CA         5.4540   -5.1840   38.5370 C.3    17  VAL17       0.1727
     18  C          6.4190   -4.0120   38.3580 C.2    17  VAL17       0.2617
     19  O          7.3730   -4.1030   37.5810 O.2    17  VAL17      -0.2715
     20  CB         4.5700   -5.2860   37.2820 C.3    17  VAL17       0.0290
     21  CG1        3.6540   -6.5340   37.3750 C.3    17  VAL17       0.0023
     22  CG2        3.7150   -4.0240   37.1330 C.3    17  VAL17       0.0023
     23  N          6.1460   -2.9020   39.0430 N.am   18  GLY18      -0.1940
     24  CA         7.0350   -1.7570   38.9410 C.3    18  GLY18       0.2014
     25  C          6.5060   -0.4970   38.2770 C.2    18  GLY18       0.2639
     26  O          7.2890    0.3620   37.8770 O.2    18  GLY18      -0.2714
     27  N          5.1880   -0.3680   38.1610 N.am   19  LYS19      -0.1963
     28  CA         4.6020    0.8140   37.5460 C.3    19  LYS19       0.1728
     29  C          5.0310    2.1080   38.2310 C.2    19  LYS19       0.2617
     30  O          5.4720    3.0510   37.5780 O.2    19  LYS19      -0.2715
     31  CB         3.0770    0.7170   37.5590 C.3    19  LYS19       0.0311
     32  CG         2.5230   -0.5150   36.8190 C.3    19  LYS19       0.0038
     33  CD         0.9990   -0.5450   36.8590 C.3    19  LYS19       0.0206
     34  CE         0.4750   -0.7300   38.2950 C.3    19  LYS19       0.1093
     35  NZ         0.9080   -1.9960   38.9460 N.3    19  LYS19      -0.1314
     36  N          4.9070    2.1780   39.5510 N.am   20  SER20      -0.1936
     37  CA         5.3120    3.4190   40.2070 C.3    20  SER20       0.2055
     38  C          6.8030    3.6750   40.0610 C.2    20  SER20       0.2643
     39  O          7.2260    4.8120   39.9170 O.2    20  SER20      -0.2714
     40  CB         4.9200    3.3890   41.6840 C.3    20  SER20       0.2130
     41  OG         3.5080    3.2970   41.7820 O.3    20  SER20      -0.2179
     42  N          7.6000    2.6170   40.0650 N.am   21  SER21      -0.1949
     43  CA         9.0430    2.7710   39.9320 C.3    21  SER21       0.1924
     44  C          9.3790    3.2870   38.5340 C.2    21  SER21       0.2314
     45  O         10.2490    4.1390   38.3680 O.2    21  SER21      -0.2863
     46  CB         9.7400    1.4320   40.1690 C.3    21  SER21       0.2116
     47  OG         9.5950    1.0030   41.5170 O.3    21  SER21      -0.2180
     48  N         14.6080    5.8790   42.0740 N.3    31  PHE31      -0.1227
     49  CA        14.2500    4.4670   42.1410 C.3    31  PHE31       0.1736
     50  C         14.2740    4.1100   43.6080 C.2    31  PHE31       0.2595
     51  O         15.2900    4.2950   44.2790 O.2    31  PHE31      -0.2718
     52  CB        15.2170    3.5190   41.4370 C.3    31  PHE31       0.0547
     53  CG        14.8810    2.0650   41.6920 C.ar   31  PHE31      -0.0202
     54  CD1       13.6790    1.5290   41.2200 C.ar   31  PHE31      -0.0042
     55  CD2       15.7050    1.2680   42.4830 C.ar   31  PHE31      -0.0042
     56  CE1       13.2980    0.2100   41.5360 C.ar   31  PHE31      -0.0003
     57  CE2       15.3430   -0.0450   42.8110 C.ar   31  PHE31      -0.0003
     58  CZ        14.1370   -0.5770   42.3380 C.ar   31  PHE31      -0.0000
     59  N         13.1660    3.5980   44.1050 N.am   32  HIS32      -0.1961
     60  CA        13.0830    3.2210   45.5130 C.3    32  HIS32       0.1787
     61  C         12.8970    1.7310   45.6530 C.2    32  HIS32       0.2620
     62  O         11.8590    1.1950   45.2720 O.2    32  HIS32      -0.2715
     63  CB        11.9210    3.9540   46.1740 C.3    32  HIS32       0.0785
     64  CG        12.0430    5.4380   46.0970 C.ar   32  HIS32       0.0821
     65  ND1       10.9620    6.2630   45.8750 N.ar   32  HIS32      -0.2267
     66  CD2       13.1270    6.2450   46.1620 C.ar   32  HIS32       0.1154
     67  CE1       11.3750    7.5150   45.8010 C.ar   32  HIS32       0.1986
     68  NE2       12.6850    7.5320   45.9710 N.ar   32  HIS32      -0.2212
     69  N         13.9180    1.0710   46.1900 N.am   33  GLU33      -0.1963
     70  CA        13.8870   -0.3750   46.4140 C.3    33  GLU33       0.1733
     71  C         12.7060   -0.7710   47.3040 C.2    33  GLU33       0.2616
     72  O         12.1710   -1.8700   47.1950 O.2    33  GLU33      -0.2715
     73  CB        15.1970   -0.8200   47.0890 C.3    33  GLU33       0.0429
     74  CG        15.3260   -2.3260   47.2970 C.3    33  GLU33       0.1163
     75  CD        15.3160   -3.1080   45.9900 C.2    33  GLU33       0.3649
     76  OE1       16.2280   -2.8860   45.1570 O.co2  33  GLU33      -0.2457
     77  OE2       14.3970   -3.9400   45.8010 O.co2  33  GLU33      -0.2457
     78  N         12.2770    0.1390   48.1690 N.am   34  PHE34      -0.1960
     79  CA        11.1970   -0.1920   49.0920 C.3    34  PHE34       0.1771
     80  C          9.8800    0.5210   48.8140 C.2    34  PHE34       0.2619
     81  O          9.1040    0.7850   49.7270 O.2    34  PHE34      -0.2715
     82  CB        11.6600    0.0830   50.5250 C.3    34  PHE34       0.0574
     83  CG        13.0220   -0.4800   50.8330 C.ar   34  PHE34      -0.0200
     84  CD1       14.1360    0.3550   50.9320 C.ar   34  PHE34      -0.0042
     85  CD2       13.1980   -1.8470   50.9780 C.ar   34  PHE34      -0.0042
     86  CE1       15.4100   -0.1740   51.1710 C.ar   34  PHE34      -0.0003
     87  CE2       14.4510   -2.3880   51.2140 C.ar   34  PHE34      -0.0003
     88  CZ        15.5650   -1.5510   51.3110 C.ar   34  PHE34      -0.0000
     89  N          9.6210    0.7930   47.5430 N.am   35  GLN35      -0.1963
     90  CA         8.3950    1.4680   47.1110 C.3    35  GLN35       0.1733
     91  C          7.1650    0.7140   47.5980 C.2    35  GLN35       0.2616
     92  O          7.0660   -0.4950   47.4010 O.2    35  GLN35      -0.2715
     93  CB         8.3610    1.5290   45.5780 C.3    35  GLN35       0.0408
     94  CG         7.3310    2.4860   45.0230 C.3    35  GLN35       0.0908
     95  CD         7.7320    3.9330   45.2350 C.2    35  GLN35       0.2608
     96  OE1        8.8510    4.3300   44.9140 O.2    35  GLN35      -0.2717
     97  NE2        6.8170    4.7280   45.7630 N.am   35  GLN35      -0.0878
     98  N          6.2150    1.4320   48.1910 N.am   36  GLU36      -0.1963
     99  CA         4.9890    0.8210   48.7100 C.3    36  GLU36       0.1733
    100  C          3.8780    0.7770   47.6640 C.2    36  GLU36       0.2617
    101  O          3.8530    1.6060   46.7550 O.2    36  GLU36      -0.2715
    102  CB         4.5070    1.6060   49.9240 C.3    36  GLU36       0.0429
    103  CG         3.8460    0.7570   50.9920 C.3    36  GLU36       0.1163
    104  CD         3.7930    1.4630   52.3380 C.2    36  GLU36       0.3649
    105  OE1        3.2010    2.5620   52.3930 O.co2  36  GLU36      -0.2457
    106  OE2        4.3460    0.9240   53.3310 O.co2  36  GLU36      -0.2457
    107  N          2.9580   -0.1760   47.8040 N.am   37  SER37      -0.1936
    108  CA         1.8540   -0.3070   46.8600 C.3    37  SER37       0.2055
    109  C          1.0250    0.9570   46.7930 C.2    37  SER37       0.2643
    110  O          0.7680    1.6030   47.8060 O.2    37  SER37      -0.2714
    111  CB         0.9480   -1.4910   47.2180 C.3    37  SER37       0.2130
    112  OG         1.4540   -2.6900   46.6530 O.3    37  SER37      -0.2179
    113  N          0.6080    1.2960   45.5790 N.am   38  THR38      -0.1950
    114  CA        -0.1780    2.4920   45.3460 C.3    38  THR38       0.1897
    115  C         -1.6320    2.2760   45.7600 C.2    38  THR38       0.2313
    116  O         -2.1540    1.1730   45.6790 O.2    38  THR38      -0.2863
    117  CB        -0.0900    2.8890   43.8420 C.3    38  THR38       0.1794
    118  OG1        1.2840    3.1180   43.5060 O.3    38  THR38      -0.2208
    119  CG2       -0.8820    4.1540   43.5480 C.3    38  THR38       0.0378
    120  N         -0.5730    6.8560   37.2450 N.3    61  ASP61      -0.1225
    121  CA         0.0630    5.6480   37.7150 C.3    61  ASP61       0.1805
    122  C         -0.9620    4.9160   38.5730 C.2    61  ASP61       0.2598
    123  O         -1.0920    5.2030   39.7710 O.2    61  ASP61      -0.2718
    124  CB         1.2810    6.0540   38.5340 C.3    61  ASP61       0.1424
    125  CG         1.8730    4.9170   39.2970 C.2    61  ASP61       0.3668
    126  OD1        1.6640    3.7610   38.8900 O.co2  61  ASP61      -0.2456
    127  OD2        2.5560    5.1910   40.3100 O.co2  61  ASP61      -0.2456
    128  N         -1.6930    3.9830   37.9660 N.am   62  THR62      -0.1939
    129  CA        -2.7400    3.2680   38.6820 C.3    62  THR62       0.2028
    130  C         -2.2480    2.1970   39.6460 C.2    62  THR62       0.2642
    131  O         -1.1640    1.6380   39.4860 O.2    62  THR62      -0.2714
    132  CB        -3.7410    2.5590   37.7290 C.3    62  THR62       0.1808
    133  OG1       -3.0900    1.4390   37.0940 O.3    62  THR62      -0.2208
    134  CG2       -4.2730    3.5320   36.6950 C.3    62  THR62       0.0379
    135  N         -3.0750    1.9290   40.6550 N.am   63  ALA63      -0.1963
    136  CA        -2.7740    0.8890   41.6340 C.3    63  ALA63       0.1728
    137  C         -3.1980   -0.4140   40.9470 C.2    63  ALA63       0.2617
    138  O         -4.3290   -0.5250   40.4540 O.2    63  ALA63      -0.2715
    139  CB        -3.5850    1.1210   42.9010 C.3    63  ALA63       0.0334
    140  N         -2.2990   -1.3970   40.9180 N.am   64  GLY64      -0.1940
    141  CA        -2.5780   -2.6500   40.2350 C.3    64  GLY64       0.2014
    142  C         -3.3660   -3.7420   40.9380 C.2    64  GLY64       0.2638
    143  O         -3.8130   -4.6930   40.2920 O.2    64  GLY64      -0.2714
    144  N         -3.5550   -3.6270   42.2500 N.am   65  GLN65      -0.1977
    145  CA        -4.2850   -4.6640   42.9700 C.3    65  GLN65       0.1601
    146  C         -5.6940   -4.7950   42.3960 C.2    65  GLN65       0.2287
    147  O         -6.3020   -3.7970   42.0110 O.2    65  GLN65      -0.2864
    148  CB        -4.3040   -4.3410   44.4780 C.3    65  GLN65       0.0394
    149  CG        -2.8970   -4.3660   45.0860 C.3    65  GLN65       0.0908
    150  CD        -2.8520   -4.0900   46.5910 C.2    65  GLN65       0.2608
    151  OE1       -3.3720   -4.8650   47.3930 O.2    65  GLN65      -0.2717
    152  NE2       -2.2190   -2.9850   46.9730 N.am   65  GLN65      -0.0878
    153  N          9.1820   -5.2230   32.5860 N.3   119  ASN119     -0.1225
    154  CA        10.0230   -4.5990   33.6000 C.3   119  ASN119      0.1785
    155  C         10.8370   -5.5560   34.4960 C.2   119  ASN119      0.2597
    156  O         10.6200   -6.7590   34.5050 O.2   119  ASN119     -0.2718
    157  CB         9.1430   -3.6460   34.4390 C.3   119  ASN119      0.1169
    158  CG         9.9620   -2.6280   35.2460 C.2   119  ASN119      0.2627
    159  OD1       10.8530   -1.9640   34.7220 O.2   119  ASN119     -0.2716
    160  ND2        9.6400   -2.5020   36.5300 N.am  119  ASN119     -0.0877
    161  N         11.7980   -4.9860   35.2170 N.am  120  LYS120     -0.1980
    162  CA        12.7110   -5.7250   36.0880 C.3   120  LYS120      0.1596
    163  C         13.6560   -6.5540   35.2310 C.2   120  LYS120      0.2287
    164  O         14.0440   -7.6580   35.6080 O.2   120  LYS120     -0.2864
    165  CB        11.9510   -6.6390   37.0540 C.3   120  LYS120      0.0298
    166  CG        10.8400   -5.9160   37.8120 C.3   120  LYS120      0.0038
    167  CD        10.5810   -6.5630   39.1670 C.3   120  LYS120      0.0206
    168  CE         9.3260   -5.9840   39.8270 C.3   120  LYS120      0.1093
    169  NZ         9.0650   -6.5650   41.1870 N.3   120  LYS120     -0.1314
    170  N         16.6170   -6.1840   34.8240 N.3   122  ASP122     -0.1225
    171  CA        17.8800   -6.3530   35.5390 C.3   122  ASP122      0.1805
    172  C         17.8840   -7.7100   36.2650 C.2   122  ASP122      0.2597
    173  O         18.9470   -8.2050   36.6650 O.2   122  ASP122     -0.2718
    174  CB        18.0950   -5.2110   36.5580 C.3   122  ASP122      0.1424
    175  CG        16.9640   -5.0900   37.5450 C.2   122  ASP122      0.3668
    176  OD1       15.8760   -4.6340   37.1230 O.co2 122  ASP122     -0.2456
    177  OD2       17.1560   -5.4520   38.7410 O.co2 122  ASP122     -0.2456
    178  N         16.6980   -8.3120   36.4330 N.am  123  LEU123     -0.1979
    179  CA        16.5770   -9.6240   37.0890 C.3   123  LEU123      0.1596
    180  C         16.5000  -10.7660   36.0600 C.2   123  LEU123      0.2287
    181  O         15.8050  -11.7510   36.2660 O.2   123  LEU123     -0.2864
    182  CB        15.3250   -9.6530   37.9900 C.3   123  LEU123      0.0297
    183  CG        15.2780   -8.5820   39.0930 C.3   123  LEU123      0.0022
    184  CD1       14.0100   -8.7880   39.9180 C.3   123  LEU123      0.0001
    185  CD2       16.5140   -8.6640   39.9970 C.3   123  LEU123      0.0001
    186  N         14.1150   -1.4300   32.9590 N.3   149  SER149     -0.1202
    187  CA        14.5180   -1.5970   34.3510 C.3   149  SER149      0.2020
    188  C         14.4400   -0.2590   35.0620 C.2   149  SER149      0.2619
    189  O         15.2470    0.6300   34.8050 O.2   149  SER149     -0.2717
    190  CB        15.9480   -2.1210   34.4890 C.3   149  SER149      0.2103
    191  OG        16.2720   -2.1560   35.8810 O.3   149  SER149     -0.2182
    192  N         13.4510   -0.1070   35.9380 N.am  150  ALA150     -0.1965
    193  CA        13.3130    1.1060   36.7230 C.3   150  ALA150      0.1728
    194  C         14.5340    1.1810   37.6380 C.2   150  ALA150      0.2616
    195  O         15.0240    2.2500   37.9430 O.2   150  ALA150     -0.2715
    196  CB        12.0370    1.0460   37.5860 C.3   150  ALA150      0.0334
    197  N         15.0340    0.0220   38.0500 N.am  151  LYS151     -0.1977
    198  CA        16.1840   -0.0180   38.9400 C.3   151  LYS151      0.1596
    199  C         17.4820    0.5170   38.3180 C.2   151  LYS151      0.2287
    200  O         18.2100    1.2500   38.9660 O.2   151  LYS151     -0.2864
    201  CB        16.4190   -1.4440   39.4410 C.3   151  LYS151      0.0298
    202  CG        17.5580   -1.5300   40.4280 C.3   151  LYS151      0.0038
    203  CD        17.6700   -2.9280   41.0430 C.3   151  LYS151      0.0206
    204  CE        18.7170   -2.9250   42.1570 C.3   151  LYS151      0.1093
    205  NZ        18.8080   -4.2710   42.7650 N.3   151  LYS151     -0.1314
@<TRIPOS>BOND
     1   153   154    1
     2   186   187    1
     3   154   157    1
     4   154   155    1
     5   187   190    1
     6   187   188    1
     7   157   158    1
     8   190   191    1
     9   155   156    2
    10   155   161   am
    11   159   158    2
    12   189   188    2
    13   170   171    1
    14   188   192   am
    15   161   162    1
    16   163   164    2
    17   163   162    1
    18   158   160   am
    19   171   172    1
    20   171   174    1
    21   192   193    1
    22   180   181    2
    23   180   179    1
    24   162   165    1
    25   172   178   am
    26   172   173    2
    27   178   179    1
    28   174   175    1
    29   134   132    1
    30   193   196    1
    31   193   194    1
    32    32    33    1
    33    32    31    1
    34    33    34    1
    35   165   166    1
    36   179   182    1
    37   133   132    1
    38   176   175   ar
    39    22    20    1
    40   120   121    1
    41    20    21    1
    42    20    17    1
    43   175   177   ar
    44    28    31    1
    45    28    27    1
    46    28    29    1
    47    30    29    2
    48    19    18    2
    49   194   195    2
    50   194   197   am
    51   121   124    1
    52   121   122    1
    53   132   129    1
    54   166   167    1
    55    26    25    2
    56   128   122   am
    57   128   129    1
    58   182   183    1
    59   197   198    1
    60    27    25   am
    61    29    36   am
    62    25    24    1
    63    34    35    1
    64   199   198    1
    65   199   200    2
    66    18    17    1
    67    18    23   am
    68    45    44    2
    69   124   125    1
    70    44    43    1
    71    17    16    1
    72   122   123    2
    73   129   130    1
    74   126   125   ar
    75   198   201    1
    76    24    23    1
    77   183   184    1
    78   183   185    1
    79   167   168    1
    80   125   127   ar
    81   201   202    1
    82   131   130    2
    83    36    37    1
    84   130   135   am
    85    16     9   am
    86   168   169    1
    87    39    38    2
    88    43    42    1
    89    43    46    1
    90    38    42   am
    91    38    37    1
    92    46    47    1
    93    37    40    1
    94   141   140    1
    95   141   142    1
    96   143   142    2
    97   202   203    1
    98   138   137    2
    99     1     2    1
   100   135   136    1
   101   140   137   am
   102     9    10    2
   103     9     8    1
   104   142   144   am
   105   137   136    1
   106   203   204    1
   107    54    56   ar
   108    54    53   ar
   109    52    53    1
   110    52    49    1
   111     4     3    2
   112    56    58   ar
   113     2     3    1
   114     2     5    1
   115   136   139    1
   116     3     7   am
   117    40    41    1
   118    53    55   ar
   119     7     8    1
   120   147   146    2
   121    48    49    1
   122    49    50    1
   123     8    11    1
   124   204   205    1
   125   144   145    1
   126    58    57   ar
   127   146   145    1
   128    55    57   ar
   129     5     6    1
   130    11    12    1
   131   145   148    1
   132   118   117    1
   133   119   117    1
   134    50    59   am
   135    50    51    2
   136   117   114    1
   137    59    60    1
   138    12    13    1
   139   148   149    1
   140    96    95    2
   141    94    95    1
   142    94    93    1
   143   149   150    1
   144    76    75   ar
   145    13    14    1
   146    95    97   am
   147    62    61    2
   148   114   113    1
   149   114   115    1
   150    60    61    1
   151    60    63    1
   152    93    90    1
   153   113   109   am
   154    61    69   am
   155   116   115    2
   156    67    65   ar
   157    67    68   ar
   158    77    75   ar
   159    65    64   ar
   160    68    66   ar
   161    75    74    1
   162    64    66   ar
   163    64    63    1
   164    69    70    1
   165    70    73    1
   166    70    71    1
   167    14    15    1
   168   150   152   am
   169   150   151    2
   170   112   111    1
   171   101   100    2
   172   109   108    1
   173   109   110    2
   174   108   111    1
   175   108   107    1
   176    73    74    1
   177    90    89    1
   178    90    91    1
   179    72    71    2
   180    71    78   am
   181    92    91    2
   182    89    80   am
   183    91    98   am
   184   100   107   am
   185   100    99    1
   186    78    79    1
   187    98    99    1
   188    99   102    1
   189    80    79    1
   190    80    81    2
   191    79    82    1
   192   102   103    1
   193    82    83    1
   194    83    84   ar
   195    83    85   ar
   196    84    86   ar
   197    85    87   ar
   198   103   104    1
   199    86    88   ar
   200    87    88   ar
   201   104   105   ar
   202   104   106   ar
