@<TRIPOS>MOLECULE
tmp/1n73F00.pdb
 155 150 0 0 0
SMALL
GASTEIGER

@<TRIPOS>ATOM
      1  N        -22.3770  -31.2760   10.6530 N.3   211  PHE211     -0.1241
      2  CA       -21.2410  -32.2010   10.5380 C.3   211  PHE211      0.1605
      3  C        -20.3110  -31.8710    9.3740 C.2   211  PHE211      0.2264
      4  O        -19.1250  -32.1730    9.4340 O.2   211  PHE211     -0.2867
      5  CB       -21.7340  -33.6420   10.3860 C.3   211  PHE211      0.0534
      6  CG       -22.2550  -34.2400   11.6560 C.ar  211  PHE211     -0.0203
      7  CD1      -21.4590  -35.0860   12.4190 C.ar  211  PHE211     -0.0042
      8  CD2      -23.5350  -33.9390   12.1080 C.ar  211  PHE211     -0.0042
      9  CE1      -21.9270  -35.6200   13.6100 C.ar  211  PHE211     -0.0003
     10  CE2      -24.0140  -34.4740   13.3090 C.ar  211  PHE211     -0.0003
     11  CZ       -23.2070  -35.3120   14.0550 C.ar  211  PHE211     -0.0000
     12  N        -20.7160  -33.0190    6.1630 N.3   213  ASP213     -0.1225
     13  CA       -20.8030  -34.0180    5.0960 C.3   213  ASP213      0.1805
     14  C        -21.7660  -33.5530    4.0110 C.2   213  ASP213      0.2597
     15  O        -21.5470  -33.7960    2.8350 O.2   213  ASP213     -0.2718
     16  CB       -21.2790  -35.3670    5.6420 C.3   213  ASP213      0.1424
     17  CG       -20.2350  -36.0650    6.4990 C.2   213  ASP213      0.3668
     18  OD1      -20.5150  -37.1840    6.9700 O.co2 213  ASP213     -0.2456
     19  OD2      -19.1380  -35.5040    6.6990 O.co2 213  ASP213     -0.2456
     20  N        -22.8450  -32.8960    4.4140 N.am  214  ASP214     -0.1974
     21  CA       -23.8210  -32.3840    3.4610 C.3   214  ASP214      0.1709
     22  C        -24.6030  -31.2260    4.0660 C.2   214  ASP214      0.2293
     23  O        -25.0000  -31.2710    5.2270 O.2   214  ASP214     -0.2864
     24  CB       -24.8040  -33.4770    3.0230 C.3   214  ASP214      0.1436
     25  CG       -25.8420  -32.9550    2.0270 C.2   214  ASP214      0.3671
     26  OD1      -25.4610  -32.6380    0.8760 O.co2 214  ASP214     -0.2456
     27  OD2      -27.0340  -32.8340    2.3990 O.co2 214  ASP214     -0.2456
     28  N        -27.1560  -31.9100    6.8300 N.3   217  ASP217     -0.1239
     29  CA       -26.8170  -32.5970    8.0700 C.3   217  ASP217      0.1674
     30  C        -27.5350  -32.1050    9.3330 C.2   217  ASP217      0.2266
     31  O        -28.1380  -32.9090   10.0630 O.2   217  ASP217     -0.2867
     32  CB       -25.3050  -32.5400    8.3030 C.3   217  ASP217      0.1410
     33  CG       -24.5230  -33.3420    7.2770 C.2   217  ASP217      0.3668
     34  OD1      -25.1620  -34.1080    6.5170 O.co2 217  ASP217     -0.2456
     35  OD2      -23.2740  -33.2150    7.2360 O.co2 217  ASP217     -0.2456
     36  N        -31.0720  -33.0660    9.3490 N.3   220  TYR220     -0.1227
     37  CA       -31.2190  -34.5080    9.4840 C.3   220  TYR220      0.1736
     38  C        -30.6560  -35.1440   10.7510 C.2   220  TYR220      0.2596
     39  O        -30.7380  -36.3660   10.9260 O.2   220  TYR220     -0.2718
     40  CB       -30.6350  -35.2060    8.2590 C.3   220  TYR220      0.0548
     41  CG       -31.5590  -35.1930    7.0440 C.ar  220  TYR220     -0.0200
     42  CD1      -32.8050  -35.8200    7.0760 C.ar  220  TYR220     -0.0009
     43  CD2      -31.1730  -34.5660    5.8610 C.ar  220  TYR220     -0.0009
     44  CE1      -33.6290  -35.8210    5.9730 C.ar  220  TYR220      0.0417
     45  CE2      -31.9920  -34.5650    4.7550 C.ar  220  TYR220      0.0417
     46  CZ       -33.2200  -35.1940    4.8140 C.ar  220  TYR220      0.1957
     47  OH       -34.0360  -35.1780    3.7020 O.3   220  TYR220     -0.2866
     48  N        -30.0930  -34.3310   11.6400 N.am  221  THR221     -0.1953
     49  CA       -29.5610  -34.8700   12.8850 C.3   221  THR221      0.1897
     50  C        -30.1970  -34.1900   14.0620 C.2   221  THR221      0.2313
     51  O        -29.7620  -34.4120   15.1820 O.2   221  THR221     -0.2863
     52  CB       -28.0510  -34.6790   13.0250 C.3   221  THR221      0.1794
     53  OG1      -27.7520  -33.2820   13.0190 O.3   221  THR221     -0.2208
     54  CG2      -27.3170  -35.3630   11.8940 C.3   221  THR221      0.0378
     55  N        -34.8080  -42.1310    8.0000 N.3   238  TYR238     -0.1241
     56  CA       -33.8110  -42.7690    7.1490 C.3   238  TYR238      0.1605
     57  C        -34.4400  -43.8840    6.3260 C.2   238  TYR238      0.2264
     58  O        -35.3710  -44.5430    6.7870 O.2   238  TYR238     -0.2867
     59  CB       -32.7200  -43.3640    8.0390 C.3   238  TYR238      0.0534
     60  CG       -31.5610  -44.0240    7.3250 C.ar  238  TYR238     -0.0201
     61  CD1      -30.7770  -44.9650    7.9790 C.ar  238  TYR238     -0.0009
     62  CD2      -31.2140  -43.6730    6.0270 C.ar  238  TYR238     -0.0009
     63  CE1      -29.6780  -45.5390    7.3660 C.ar  238  TYR238      0.0417
     64  CE2      -30.1170  -44.2390    5.4060 C.ar  238  TYR238      0.0417
     65  CZ       -29.3530  -45.1720    6.0840 C.ar  238  TYR238      0.1957
     66  OH       -28.2550  -45.7280    5.4790 O.3   238  TYR238     -0.2866
     67  N        -31.4310  -46.3680   11.5210 N.3   242  CYS242     -0.1235
     68  CA       -30.3810  -45.7930   12.3690 C.3   242  CYS242      0.1677
     69  C        -30.1960  -46.6200   13.6470 C.2   242  CYS242      0.2270
     70  O        -29.0860  -47.0260   13.9710 O.2   242  CYS242     -0.2867
     71  CB       -30.7060  -44.3270   12.7440 C.3   242  CYS242      0.0956
     72  SG       -30.7570  -43.1040   11.3810 S.3   242  CYS242     -0.0801
     73  N        -28.6400  -50.0600   12.9080 N.3   245  GLN245     -0.1231
     74  CA       -27.2610  -49.8510   12.4750 C.3   245  GLN245      0.1698
     75  C        -26.3690  -49.4370   13.6460 C.2   245  GLN245      0.2592
     76  O        -25.2100  -49.8260   13.7240 O.2   245  GLN245     -0.2718
     77  CB       -27.1850  -48.7630   11.4160 C.3   245  GLN245      0.0381
     78  CG       -27.5430  -49.1920   10.0330 C.3   245  GLN245      0.0905
     79  CD       -27.2680  -48.0930    9.0560 C.2   245  GLN245      0.2608
     80  OE1      -26.2500  -47.4190    9.1640 O.2   245  GLN245     -0.2717
     81  NE2      -28.1620  -47.8980    8.0960 N.am  245  GLN245     -0.0878
     82  N        -26.9120  -48.6360   14.5530 N.am  246  ASP246     -0.1974
     83  CA       -26.1410  -48.1790   15.6810 C.3   246  ASP246      0.1709
     84  C        -26.3960  -48.9270   16.9820 C.2   246  ASP246      0.2293
     85  O        -25.8530  -48.5570   18.0290 O.2   246  ASP246     -0.2864
     86  CB       -26.3480  -46.6810   15.8580 C.3   246  ASP246      0.1436
     87  CG       -25.6930  -45.8840   14.7510 C.2   246  ASP246      0.3671
     88  OD1      -24.6270  -46.3190   14.2580 O.co2 246  ASP246     -0.2456
     89  OD2      -26.2270  -44.8200   14.3780 O.co2 246  ASP246     -0.2456
     90  N        -32.3860  -38.4640   10.8470 N.3   254  ARG254     -0.1231
     91  CA       -31.6980  -39.1360    9.7410 C.3   254  ARG254      0.1694
     92  C        -30.4410  -39.4690   10.4820 C.2   254  ARG254      0.2592
     93  O        -29.3230  -39.0840   10.1130 O.2   254  ARG254     -0.2718
     94  CB       -31.3860  -38.2410    8.5370 C.3   254  ARG254      0.0321
     95  CG       -30.8900  -39.0540    7.3330 C.3   254  ARG254      0.0489
     96  CD       -31.7230  -38.7910    6.0790 C.3   254  ARG254      0.2205
     97  NE       -31.4480  -39.7510    5.0050 N.pl3 254  ARG254     -0.0865
     98  CZ       -30.2700  -39.8920    4.4040 C.cat 254  ARG254      0.5346
     99  NH1      -29.2430  -39.1380    4.7650 N.pl3 254  ARG254      0.1354
    100  NH2      -30.1150  -40.7850    3.4390 N.pl3 254  ARG254      0.1354
    101  N        -30.7210  -40.1520   11.5890 N.am  255  CYS255     -0.1956
    102  CA       -29.7920  -40.6570   12.5810 C.3   255  CYS255      0.1843
    103  C        -29.5670  -39.7290   13.7560 C.2   255  CYS255      0.2625
    104  O        -30.5320  -39.4200   14.4380 O.2   255  CYS255     -0.2714
    105  CB       -28.4900  -41.1190   11.9340 C.3   255  CYS255      0.0997
    106  SG       -28.8090  -42.6410   10.9850 S.3   255  CYS255     -0.0797
    107  N        -28.3520  -39.2480   14.0020 N.am  256  HIS256     -0.1973
    108  CA       -28.1700  -38.4370   15.2150 C.3   256  HIS256      0.1656
    109  C        -27.0110  -37.4460   15.3440 C.2   256  HIS256      0.2291
    110  O        -26.0020  -37.5300   14.6500 O.2   256  HIS256     -0.2864
    111  CB       -28.0840  -39.3890   16.4010 C.3   256  HIS256      0.0771
    112  CG       -26.9720  -40.3700   16.2710 C.ar  256  HIS256      0.0820
    113  ND1      -25.6470  -39.9930   16.2960 N.ar  256  HIS256     -0.2267
    114  CD2      -26.9810  -41.7040   16.0410 C.ar  256  HIS256      0.1154
    115  CE1      -24.8860  -41.0520   16.0860 C.ar  256  HIS256      0.1986
    116  NE2      -25.6710  -42.1040   15.9280 N.ar  256  HIS256     -0.2212
    117  N        -20.6330  -46.4510   10.4930 N.3   279  TYR279     -0.1227
    118  CA       -21.2310  -45.2520   11.0260 C.3   279  TYR279      0.1736
    119  C        -21.0000  -45.1480   12.5180 C.2   279  TYR279      0.2595
    120  O        -20.8990  -46.1560   13.2140 O.2   279  TYR279     -0.2718
    121  CB       -22.7210  -45.2470   10.7180 C.3   279  TYR279      0.0548
    122  CG       -23.0240  -45.3350    9.2450 C.ar  279  TYR279     -0.0200
    123  CD1      -22.4530  -44.4370    8.3440 C.ar  279  TYR279     -0.0009
    124  CD2      -23.8830  -46.3120    8.7500 C.ar  279  TYR279     -0.0009
    125  CE1      -22.7310  -44.5100    6.9780 C.ar  279  TYR279      0.0417
    126  CE2      -24.1750  -46.3940    7.3830 C.ar  279  TYR279      0.0417
    127  CZ       -23.5960  -45.4910    6.5040 C.ar  279  TYR279      0.1957
    128  OH       -23.8820  -45.5620    5.1600 O.3   279  TYR279     -0.2866
    129  N        -20.9190  -43.9120   12.9950 N.am  280  ASP280     -0.1974
    130  CA       -20.6810  -43.6170   14.3950 C.3   280  ASP280      0.1709
    131  C        -21.8040  -44.1170   15.3000 C.2   280  ASP280      0.2293
    132  O        -22.9360  -43.6360   15.2450 O.2   280  ASP280     -0.2864
    133  CB       -20.4700  -42.1100   14.5550 C.3   280  ASP280      0.1436
    134  CG       -21.5210  -41.2950   13.8360 C.2   280  ASP280      0.3671
    135  OD1      -21.7510  -41.5310   12.6350 O.co2 280  ASP280     -0.2456
    136  OD2      -22.1140  -40.4090   14.4720 O.co2 280  ASP280     -0.2456
    137  N        -21.9460  -40.0410   21.5790 N.3   284  ILE284     -0.1245
    138  CA       -21.4940  -38.7130   21.1930 C.3   284  ILE284      0.1561
    139  C        -22.4150  -37.5420   21.5180 C.2   284  ILE284      0.2260
    140  O        -23.5880  -37.7120   21.8710 O.2   284  ILE284     -0.2867
    141  CB       -21.2010  -38.6440   19.6980 C.3   284  ILE284      0.0252
    142  CG1      -22.5210  -38.5820   18.9140 C.3   284  ILE284      0.0019
    143  CG2      -20.4120  -39.8690   19.2680 C.3   284  ILE284      0.0019
    144  CD1      -22.3620  -38.1830   17.4660 C.3   284  ILE284      0.0001
    145  N        -18.2980  -37.0390   16.2060 N.3   291  ARG291     -0.1245
    146  CA       -18.7740  -38.4070   16.0140 C.3   291  ARG291      0.1563
    147  C        -17.8620  -39.5840   16.3600 C.2   291  ARG291      0.2260
    148  O        -18.3580  -40.6390   16.7680 O.2   291  ARG291     -0.2867
    149  CB       -19.3240  -38.5760   14.5890 C.3   291  ARG291      0.0307
    150  CG       -18.2870  -38.6070   13.4890 C.3   291  ARG291      0.0489
    151  CD       -18.9600  -38.6390   12.1080 C.3   291  ARG291      0.2205
    152  NE       -18.8900  -37.3390   11.4420 N.pl3 291  ARG291     -0.0865
    153  CZ       -19.4020  -37.0750   10.2480 C.cat 291  ARG291      0.5346
    154  NH1      -20.0360  -38.0270    9.5800 N.pl3 291  ARG291      0.1354
    155  NH2      -19.2580  -35.8670    9.7180 N.pl3 291  ARG291      0.1354
@<TRIPOS>BOND
     1    26    25   ar
     2    25    27   ar
     3    25    24    1
     4    15    14    2
     5    24    21    1
     6   100    98    1
     7    21    22    1
     8    21    20    1
     9    47    46    1
    10    14    20   am
    11    14    13    1
    12    22    23    2
    13    98    99    1
    14    98    97    2
    15    45    46   ar
    16    45    43   ar
    17    46    44   ar
    18    97    96    1
    19    13    16    1
    20    13    12    1
    21   128   127    1
    22    64    62   ar
    23    64    65   ar
    24    66    65    1
    25    16    17    1
    26    43    41   ar
    27    44    42   ar
    28    62    60   ar
    29    96    95    1
    30    65    63   ar
    31    57    58    2
    32    57    56    1
    33    17    19   ar
    34    17    18   ar
    35   127   125   ar
    36   127   126   ar
    37    34    33   ar
    38    28    29    1
    39   125   123   ar
    40    41    42   ar
    41    41    40    1
    42    56    55    1
    43    56    59    1
    44    35    33   ar
    45    33    32    1
    46    60    61   ar
    47    60    59    1
    48    95    94    1
    49    63    61   ar
    50   126   124   ar
    51    29    32    1
    52    29    30    1
    53    81    79   am
    54    40    37    1
    55   123   122   ar
    56    94    91    1
    57   124   122   ar
    58    79    80    2
    59    79    78    1
    60   122   121    1
    61    30    31    2
    62    36    37    1
    63     3     4    2
    64     3     2    1
    65    37    38    1
    66   154   153    1
    67   155   153    1
    68    91    92    1
    69    91    90    1
    70    78    77    1
    71    93    92    2
    72   153   152    2
    73     5     2    1
    74     5     6    1
    75    92   101   am
    76   117   118    1
    77     2     1    1
    78   121   118    1
    79    38    39    2
    80    38    48   am
    81   106    72    1
    82   106   105    1
    83   118   119    1
    84    72    71    1
    85    77    74    1
    86   152   151    1
    87    67    68    1
    88   101   102    1
    89    48    49    1
    90     6     8   ar
    91     6     7   ar
    92    54    52    1
    93   105   102    1
    94   151   150    1
    95     8    10   ar
    96    68    71    1
    97    68    69    1
    98     7     9   ar
    99    74    73    1
   100    74    75    1
   101   119   129   am
   102   119   120    2
   103   102   103    1
   104   135   134   ar
   105    49    52    1
   106    49    50    1
   107   129   130    1
   108    53    52    1
   109    10    11   ar
   110   150   149    1
   111     9    11   ar
   112    75    76    2
   113    75    82   am
   114    69    70    2
   115   103   107   am
   116   103   104    2
   117   134   136   ar
   118   134   133    1
   119   107   108    1
   120    50    51    2
   121    88    87   ar
   122    89    87   ar
   123   130   133    1
   124   130   131    1
   125    82    83    1
   126   149   146    1
   127   110   109    2
   128    87    86    1
   129   108   109    1
   130   108   111    1
   131   132   131    2
   132    83    86    1
   133    83    84    1
   134   116   114   ar
   135   116   115   ar
   136   146   145    1
   137   146   147    1
   138   114   112   ar
   139   115   113   ar
   140   112   113   ar
   141   112   111    1
   142   147   148    2
   143    84    85    2
   144   144   142    1
   145   142   141    1
   146   143   141    1
   147   141   138    1
   148   138   139    1
   149   138   137    1
   150   139   140    2
