@<TRIPOS>MOLECULE
tmp/1n77D00.pdb
 188 185 0 0 0
SMALL
GASTEIGER

@<TRIPOS>ATOM
      1  N         93.5840   80.1770  102.7910 N.3     5  ARG5       -0.1231
      2  CA        94.8810   80.1000  103.4360 C.3     5  ARG5        0.1694
      3  C         94.8250   79.6100  104.8610 C.2     5  ARG5        0.2592
      4  O         93.7670   79.5820  105.4700 O.2     5  ARG5       -0.2718
      5  CB        95.5640   81.4770  103.3980 C.3     5  ARG5        0.0321
      6  CG        94.7090   82.6730  103.8580 C.3     5  ARG5        0.0489
      7  CD        94.3320   82.5800  105.3230 C.3     5  ARG5        0.2205
      8  NE        94.0350   83.8780  105.9160 N.pl3   5  ARG5       -0.0865
      9  CZ        93.6850   84.0420  107.1860 C.cat   5  ARG5        0.5346
     10  NH1       93.5890   82.9900  107.9870 N.pl3   5  ARG5        0.1354
     11  NH2       93.4340   85.2510  107.6620 N.pl3   5  ARG5        0.1354
     12  N         95.9880   79.2190  105.3690 N.am    6  ILE6       -0.1966
     13  CA        96.1590   78.7680  106.7360 C.3     6  ILE6        0.1727
     14  C         97.3640   79.5920  107.2010 C.2     6  ILE6        0.2616
     15  O         98.3290   79.7820  106.4460 O.2     6  ILE6       -0.2715
     16  CB        96.4850   77.2470  106.8000 C.3     6  ILE6        0.0290
     17  CG1       96.3060   76.7350  108.2200 C.3     6  ILE6        0.0022
     18  CG2       97.9150   76.9690  106.3920 C.3     6  ILE6        0.0023
     19  CD1       94.8560   76.6000  108.6200 C.3     6  ILE6        0.0001
     20  N         97.3080   80.1170  108.4150 N.am    7  ALA7       -0.1964
     21  CA        98.4180   80.9120  108.9290 C.3     7  ALA7        0.1713
     22  C         98.8790   80.3460  110.2750 C.2     7  ALA7        0.2458
     23  O         98.6750   80.9550  111.3240 O.2     7  ALA7       -0.2730
     24  CB        97.9930   82.3740  109.0650 C.3     7  ALA7        0.0333
     25  N         99.5110   79.1630  110.2550 N.am    8  PRO8       -0.2716
     26  CA        99.9800   78.5430  111.4920 C.3     8  PRO8        0.1536
     27  C        101.1030   79.3350  112.1420 C.2     8  PRO8        0.2599
     28  O        101.8460   80.0580  111.4800 O.2     8  PRO8       -0.2715
     29  CB       100.4650   77.1650  111.0410 C.3     8  PRO8        0.0310
     30  CG        99.8240   76.9630  109.7060 C.3     8  PRO8        0.0237
     31  CD        99.8720   78.3330  109.1000 C.3     8  PRO8        0.0939
     32  N        101.2120   79.1960  113.4520 N.am    9  SER9       -0.1950
     33  CA       102.2640   79.8550  114.2020 C.3     9  SER9        0.1924
     34  C        103.1500   78.7190  114.6660 C.2     9  SER9        0.2314
     35  O        102.6550   77.7440  115.2170 O.2     9  SER9       -0.2863
     36  CB       101.6950   80.5740  115.4230 C.3     9  SER9        0.2116
     37  OG       100.8320   81.6360  115.0480 O.3     9  SER9       -0.2180
     38  N        104.8600   77.6350  117.2730 N.3    11  THR11      -0.1203
     39  CA       105.1560   77.8690  118.6790 C.3    11  THR11       0.1994
     40  C        104.7340   76.6920  119.5490 C.2    11  THR11       0.2618
     41  O        104.2690   76.8700  120.6830 O.2    11  THR11      -0.2717
     42  CB       104.4510   79.1490  119.1790 C.3    11  THR11       0.1784
     43  OG1      103.0550   79.0910  118.8420 O.3    11  THR11      -0.2211
     44  CG2      105.0850   80.3950  118.5430 C.3    11  THR11       0.0376
     45  N        104.9080   75.4880  119.0110 N.am   12  GLY12      -0.1942
     46  CA       104.5460   74.2860  119.7420 C.3    12  GLY12       0.2014
     47  C        104.3280   73.1120  118.8050 C.2    12  GLY12       0.2638
     48  O        104.6320   73.2090  117.6130 O.2    12  GLY12      -0.2714
     49  N        103.8080   72.0090  119.3410 N.am   13  ASP13      -0.1971
     50  CA       103.5370   70.8110  118.5470 C.3    13  ASP13       0.1709
     51  C        102.4570   71.0980  117.5150 C.2    13  ASP13       0.2293
     52  O        101.6100   71.9600  117.7170 O.2    13  ASP13      -0.2864
     53  CB       103.0250   69.6730  119.4330 C.3    13  ASP13       0.1436
     54  CG       103.8950   69.4330  120.6400 C.2    13  ASP13       0.3671
     55  OD1      105.0280   68.9380  120.4670 O.co2  13  ASP13      -0.2456
     56  OD2      103.4420   69.7430  121.7640 O.co2  13  ASP13      -0.2456
     57  N         99.2110   71.3680  116.1080 N.3    15  HIS15      -0.1241
     58  CA        97.9210   71.2520  116.7810 C.3    15  HIS15       0.1621
     59  C         96.7600   70.7630  115.9130 C.2    15  HIS15       0.2264
     60  O         96.6210   71.1400  114.7510 O.2    15  HIS15      -0.2867
     61  CB        97.5960   72.6080  117.4200 C.3    15  HIS15       0.0745
     62  CG        96.4840   72.5730  118.4210 C.ar   15  HIS15       0.0817
     63  ND1       95.1770   72.2990  118.0770 N.ar   15  HIS15      -0.2268
     64  CD2       96.4730   72.8500  119.7480 C.ar   15  HIS15       0.1154
     65  CE1       94.4090   72.4160  119.1460 C.ar   15  HIS15       0.1986
     66  NE2       95.1710   72.7500  120.1740 N.ar   15  HIS15      -0.2212
     67  N         93.7320   71.5260  116.0870 N.3    17  GLY17      -0.1210
     68  CA        92.8430   72.6030  115.7050 C.3    17  GLY17       0.1956
     69  C         93.2680   73.1610  114.3660 C.2    17  GLY17       0.2612
     70  O         92.4400   73.5770  113.5670 O.2    17  GLY17      -0.2717
     71  N         94.5710   73.1600  114.1210 N.am   18  THR18      -0.1952
     72  CA        95.1170   73.6740  112.8820 C.3    18  THR18       0.1897
     73  C         94.7320   72.7620  111.7320 C.2    18  THR18       0.2313
     74  O         94.3110   73.2310  110.6700 O.2    18  THR18      -0.2863
     75  CB        96.6410   73.7750  112.9660 C.3    18  THR18       0.1794
     76  OG1       96.9880   74.6950  114.0070 O.3    18  THR18      -0.2208
     77  CG2       97.2230   74.2570  111.6400 C.3    18  THR18       0.0378
     78  N         92.2490   70.8960  111.5920 N.3    20  TYR20      -0.1227
     79  CA        90.8120   71.1000  111.4240 C.3    20  TYR20       0.1736
     80  C         90.5130   72.2950  110.5190 C.2    20  TYR20       0.2595
     81  O         89.8030   72.1580  109.5270 O.2    20  TYR20      -0.2718
     82  CB        90.1650   71.2900  112.7900 C.3    20  TYR20       0.0548
     83  CG        88.7370   71.7860  112.7550 C.ar   20  TYR20      -0.0200
     84  CD1       87.7040   70.9960  112.2480 C.ar   20  TYR20      -0.0009
     85  CD2       88.4120   73.0270  113.2800 C.ar   20  TYR20      -0.0009
     86  CE1       86.3700   71.4400  112.2760 C.ar   20  TYR20       0.0417
     87  CE2       87.0920   73.4820  113.3160 C.ar   20  TYR20       0.0417
     88  CZ        86.0820   72.6860  112.8190 C.ar   20  TYR20       0.1957
     89  OH        84.7900   73.1410  112.9040 O.3    20  TYR20      -0.2866
     90  N         91.0520   73.4640  110.8590 N.am   21  ILE21      -0.1980
     91  CA        90.8300   74.6540  110.0470 C.3    21  ILE21       0.1595
     92  C         91.4460   74.4550  108.6570 C.2    21  ILE21       0.2287
     93  O         90.8390   74.8460  107.6560 O.2    21  ILE21      -0.2864
     94  CB        91.4090   75.9430  110.7250 C.3    21  ILE21       0.0276
     95  CG1       90.2990   76.7310  111.4160 C.3    21  ILE21       0.0022
     96  CG2       91.9390   76.8880  109.7030 C.3    21  ILE21       0.0022
     97  CD1       89.6190   76.0090  112.5420 C.3    21  ILE21       0.0001
     98  N         98.6720   90.3630  114.4090 N.3   187  TYR187     -0.1241
     99  CA        97.8310   89.5800  113.4910 C.3   187  TYR187      0.1605
    100  C         96.9310   90.5050  112.6970 C.2   187  TYR187      0.2264
    101  O         96.7120   90.3140  111.5090 O.2   187  TYR187     -0.2867
    102  CB        96.9170   88.6040  114.2430 C.3   187  TYR187      0.0534
    103  CG        96.0130   87.7470  113.3420 C.ar  187  TYR187     -0.0201
    104  CD1       96.4080   86.4630  112.9210 C.ar  187  TYR187     -0.0009
    105  CD2       94.7370   88.1880  112.9560 C.ar  187  TYR187     -0.0009
    106  CE1       95.5440   85.6290  112.1440 C.ar  187  TYR187      0.0417
    107  CE2       93.8670   87.3580  112.1750 C.ar  187  TYR187      0.0417
    108  CZ        94.2800   86.0840  111.7810 C.ar  187  TYR187      0.1957
    109  OH        93.4380   85.2640  111.0490 O.3   187  TYR187     -0.2866
    110  N         88.4010   80.8120  109.2490 N.3   205  ARG205     -0.1231
    111  CA        89.1750   80.7360  110.4840 C.3   205  ARG205      0.1694
    112  C         88.3180   80.3460  111.6840 C.2   205  ARG205      0.2591
    113  O         87.0860   80.3250  111.6050 O.2   205  ARG205     -0.2718
    114  CB        89.8450   82.0940  110.7470 C.3   205  ARG205      0.0321
    115  CG        88.9760   83.0900  111.5140 C.3   205  ARG205      0.0489
    116  CD        88.7790   84.4580  110.8320 C.3   205  ARG205      0.2205
    117  NE        89.9850   85.2580  110.6720 N.pl3 205  ARG205     -0.0865
    118  CZ        89.9920   86.5890  110.6100 C.cat 205  ARG205      0.5346
    119  NH1       88.8630   87.2810  110.7090 N.pl3 205  ARG205      0.1354
    120  NH2       91.1340   87.2320  110.4100 N.pl3 205  ARG205      0.1354
    121  N         88.9850   80.0390  112.7920 N.am  206  ALA206     -0.1980
    122  CA        88.2970   79.6560  114.0160 C.3   206  ALA206      0.1597
    123  C         87.4350   80.7950  114.5470 C.2   206  ALA206      0.2287
    124  O         87.7890   81.9690  114.4390 O.2   206  ALA206     -0.2864
    125  CB        89.2960   79.2330  115.0750 C.3   206  ALA206      0.0319
    126  N         87.0990   81.9230  117.2730 N.3   208  GLU208     -0.1231
    127  CA        87.7020   82.8050  118.2620 C.3   208  GLU208      0.1699
    128  C         88.0970   84.1640  117.6830 C.2   208  GLU208      0.2592
    129  O         88.3820   85.0970  118.4270 O.2   208  GLU208     -0.2718
    130  CB        88.8870   82.1250  118.9810 C.3   208  GLU208      0.0402
    131  CG        90.0080   81.5480  118.1200 C.3   208  GLU208      0.1161
    132  CD        91.0140   80.7190  118.9510 C.2   208  GLU208      0.3649
    133  OE1       91.4110   81.1780  120.0460 O.co2 208  GLU208     -0.2457
    134  OE2       91.4180   79.6170  118.5090 O.co2 208  GLU208     -0.2457
    135  N         88.0610   84.2860  116.3600 N.am  209  TRP209     -0.1976
    136  CA        88.4130   85.5350  115.6900 C.3   209  TRP209      0.1640
    137  C         87.2130   86.3500  115.2220 C.2   209  TRP209      0.2290
    138  O         87.3800   87.4270  114.6390 O.2   209  TRP209     -0.2864
    139  CB        89.2770   85.2550  114.4650 C.3   209  TRP209      0.0576
    140  CG        90.5210   84.5090  114.7500 C.ar  209  TRP209      0.0006
    141  CD1       90.6800   83.1540  114.8050 C.ar  209  TRP209      0.0946
    142  CD2       91.7990   85.0750  115.0210 C.ar  209  TRP209      0.0152
    143  NE1       91.9860   82.8410  115.0930 N.ar  209  TRP209     -0.2442
    144  CE2       92.6960   84.0050  115.2320 C.ar  209  TRP209      0.0810
    145  CE3       92.2780   86.3890  115.1120 C.ar  209  TRP209      0.0012
    146  CZ2       94.0490   84.2100  115.5200 C.ar  209  TRP209      0.0191
    147  CZ3       93.6180   86.5920  115.4000 C.ar  209  TRP209      0.0001
    148  CH2       94.4880   85.5080  115.6010 C.ar  209  TRP209      0.0015
    149  N         83.4960   76.6390  114.1720 N.3   234  PRO234     -0.2102
    150  CA        83.2970   76.4030  115.6050 C.3   234  PRO234      0.1504
    151  C         84.6050   75.8730  116.1880 C.2   234  PRO234      0.2576
    152  O         85.3670   75.1970  115.4940 O.2   234  PRO234     -0.2718
    153  CB        82.2210   75.3220  115.6300 C.3   234  PRO234      0.0282
    154  CG        81.4380   75.5880  114.3860 C.3   234  PRO234      0.0208
    155  CD        82.5130   75.8900  113.3740 C.3   234  PRO234      0.0893
    156  N         84.8590   76.1720  117.4560 N.am  235  LEU235     -0.1966
    157  CA        86.0680   75.7060  118.1190 C.3   235  LEU235      0.1728
    158  C         85.9130   74.2590  118.5760 C.2   235  LEU235      0.2616
    159  O         84.8550   73.8750  119.0560 O.2   235  LEU235     -0.2715
    160  CB        86.3810   76.5890  119.3270 C.3   235  LEU235      0.0311
    161  CG        87.0670   77.9260  119.0320 C.3   235  LEU235      0.0022
    162  CD1       87.2970   78.6990  120.3370 C.3   235  LEU235      0.0001
    163  CD2       88.4040   77.6650  118.3340 C.3   235  LEU235      0.0001
    164  N         86.9520   73.4490  118.3940 N.am  236  LEU236     -0.1977
    165  CA        86.8980   72.0630  118.8390 C.3   236  LEU236      0.1596
    166  C         86.9280   72.2040  120.3540 C.2   236  LEU236      0.2287
    167  O         87.5920   73.0960  120.8800 O.2   236  LEU236     -0.2864
    168  CB        88.1120   71.2890  118.3270 C.3   236  LEU236      0.0297
    169  CG        87.9940   70.5190  117.0050 C.3   236  LEU236      0.0022
    170  CD1       86.9440   71.0910  116.0770 C.3   236  LEU236      0.0001
    171  CD2       89.3530   70.5390  116.3480 C.3   236  LEU236      0.0001
    172  N         87.3710   75.2380  124.9990 N.3   243  LYS243     -0.1231
    173  CA        88.1450   75.0420  123.7800 C.3   243  LYS243      0.1693
    174  C         89.2580   74.0220  124.0440 C.2   243  LYS243      0.2591
    175  O         90.0520   74.1700  124.9720 O.2   243  LYS243     -0.2718
    176  CB        88.7170   76.3720  123.2640 C.3   243  LYS243      0.0285
    177  CG        89.8390   76.9690  124.0820 C.3   243  LYS243      0.0035
    178  CD        90.3420   78.2920  123.4850 C.3   243  LYS243      0.0206
    179  CE        90.7800   78.1090  122.0420 C.3   243  LYS243      0.1093
    180  NZ        91.7060   79.1970  121.6050 N.3   243  LYS243     -0.1314
    181  N         89.2840   72.9740  123.2270 N.am  244  ILE244     -0.1980
    182  CA        90.2540   71.9030  123.3580 C.3   244  ILE244      0.1595
    183  C         91.6350   72.4290  123.7720 C.2   244  ILE244      0.2287
    184  O         92.1410   73.3990  123.2100 O.2   244  ILE244     -0.2864
    185  CB        90.3190   71.0940  122.0420 C.3   244  ILE244      0.0276
    186  CG1       90.9780   69.7420  122.2960 C.3   244  ILE244      0.0022
    187  CG2       91.0440   71.8860  120.9680 C.3   244  ILE244      0.0022
    188  CD1       90.7130   68.7360  121.2020 C.3   244  ILE244      0.0001
@<TRIPOS>BOND
     1     1     2    1
     2     5     2    1
     3     5     6    1
     4     2     3    1
     5     6     7    1
     6     3    12   am
     7     3     4    2
     8     7     8    1
     9    12    13    1
    10     8     9    2
    11    18    16    1
    12    15    14    2
    13    13    16    1
    14    13    14    1
    15    16    17    1
    16     9    11    1
    17     9    10    1
    18    14    20   am
    19    93    92    2
    20    17    19    1
    21    20    21    1
    22    92    91    1
    23    21    24    1
    24    21    22    1
    25    31    30    1
    26    31    25    1
    27   110   111    1
    28    81    80    2
    29    96    94    1
    30    30    29    1
    31    91    94    1
    32    91    90    1
    33    25    22   am
    34    25    26    1
    35    22    23    2
    36   120   118    1
    37   111   114    1
    38   111   112    1
    39    80    90   am
    40    80    79    1
    41   118   117    2
    42   118   119    1
    43    74    73    2
    44   117   116    1
    45    94    95    1
    46   114   115    1
    47   116   115    1
    48    29    26    1
    49   109   108    1
    50    95    97    1
    51    79    78    1
    52    79    82    1
    53    28    27    2
    54    26    27    1
    55   101   100    2
    56   113   112    2
    57    77    75    1
    58   112   121   am
    59    73    72    1
    60   108   106   ar
    61   108   107   ar
    62    27    32   am
    63   106   104   ar
    64   107   105   ar
    65    84    86   ar
    66    84    83   ar
    67    86    88   ar
    68   100    99    1
    69    83    82    1
    70    83    85   ar
    71   121   122    1
    72    88    89    1
    73    88    87   ar
    74    72    75    1
    75    72    71    1
    76   104   103   ar
    77   105   103   ar
    78    75    76    1
    79    85    87   ar
    80   103   102    1
    81   155   149    1
    82   155   154    1
    83    32    33    1
    84    99   102    1
    85    99    98    1
    86    70    69    2
    87   122   123    1
    88   122   125    1
    89    71    69   am
    90   149   150    1
    91    33    34    1
    92    33    36    1
    93    69    68    1
    94   154   153    1
    95   124   123    2
    96   139   140    1
    97   139   136    1
    98   138   137    2
    99    34    35    2
   100   140   141   ar
   101   140   142   ar
   102    60    59    2
   103   141   143   ar
   104   142   145   ar
   105   142   144   ar
   106    37    36    1
   107   143   144   ar
   108   145   147   ar
   109   137   136    1
   110   144   146   ar
   111   147   148   ar
   112   152   151    2
   113   146   148   ar
   114   150   153    1
   115   150   151    1
   116   136   135    1
   117    68    67    1
   118    59    58    1
   119   170   169    1
   120    57    58    1
   121   151   156   am
   122   171   169    1
   123   135   128   am
   124    58    61    1
   125   169   168    1
   126    38    39    1
   127   126   127    1
   128    61    62    1
   129   156   157    1
   130    51    52    2
   131    51    50    1
   132    48    47    2
   133   128   127    1
   134   128   129    2
   135    63    62   ar
   136    63    65   ar
   137   157   158    1
   138   157   160    1
   139   131   132    1
   140   131   130    1
   141   127   130    1
   142   168   165    1
   143   163   161    1
   144   164   158   am
   145   164   165    1
   146    62    64   ar
   147   134   132   ar
   148    44    42    1
   149    50    49    1
   150    50    53    1
   151   158   159    2
   152    39    42    1
   153    39    40    1
   154    47    49   am
   155    47    46    1
   156   165   166    1
   157    43    42    1
   158   132   133   ar
   159    45    40   am
   160    45    46    1
   161   161   160    1
   162   161   162    1
   163    65    66   ar
   164    53    54    1
   165    40    41    2
   166    64    66   ar
   167   166   167    2
   168    55    54   ar
   169    54    56   ar
   170   187   185    1
   171   188   186    1
   172   180   179    1
   173   179   178    1
   174   185   186    1
   175   185   182    1
   176   184   183    2
   177   181   182    1
   178   181   174   am
   179   176   173    1
   180   176   177    1
   181   182   183    1
   182   178   177    1
   183   173   174    1
   184   173   172    1
   185   174   175    2
