@<TRIPOS>MOLECULE
tmp/1n78C00.pdb
 194 190 0 0 0
SMALL
GASTEIGER

@<TRIPOS>ATOM
      1  N         37.7520   79.5640   41.7030 N.3     5  ARG5       -0.1231
      2  CA        38.8970   79.2550   42.5390 C.3     5  ARG5        0.1694
      3  C         38.5160   78.7560   43.9120 C.2     5  ARG5        0.2592
      4  O         37.3590   78.8420   44.3220 O.2     5  ARG5       -0.2718
      5  CB        39.8340   80.4640   42.6860 C.3     5  ARG5        0.0321
      6  CG        39.1980   81.8070   43.0550 C.3     5  ARG5        0.0489
      7  CD        38.3370   81.7370   44.2870 C.3     5  ARG5        0.2205
      8  NE        37.9610   83.0500   44.8080 N.pl3   5  ARG5       -0.0865
      9  CZ        37.2540   83.1980   45.9250 C.cat   5  ARG5        0.5346
     10  NH1       36.8610   82.1190   46.5830 N.pl3   5  ARG5        0.1354
     11  NH2       36.9790   84.4020   46.4110 N.pl3   5  ARG5        0.1354
     12  N         39.5110   78.1960   44.5910 N.am    6  ILE6       -0.1966
     13  CA        39.3960   77.7170   45.9600 C.3     6  ILE6        0.1727
     14  C         40.5640   78.4850   46.6030 C.2     6  ILE6        0.2616
     15  O         41.6720   78.5270   46.0520 O.2     6  ILE6       -0.2715
     16  CB        39.5800   76.1670   46.0560 C.3     6  ILE6        0.0290
     17  CG1       39.3210   75.7070   47.4890 C.3     6  ILE6        0.0022
     18  CG2       40.9670   75.7470   45.6170 C.3     6  ILE6        0.0023
     19  CD1       37.8900   75.9060   47.9260 C.3     6  ILE6        0.0001
     20  N         40.3130   79.1370   47.7300 N.am    7  ALA7       -0.1964
     21  CA        41.3440   79.9390   48.3680 C.3     7  ALA7        0.1713
     22  C         41.5430   79.5420   49.8190 C.2     7  ALA7        0.2458
     23  O         41.1700   80.2680   50.7420 O.2     7  ALA7       -0.2730
     24  CB        40.9770   81.4100   48.2670 C.3     7  ALA7        0.0333
     25  N         42.1500   78.3770   50.0330 N.am    8  PRO8       -0.2716
     26  CA        42.4190   77.8360   51.3640 C.3     8  PRO8        0.1536
     27  C         43.4010   78.6930   52.1450 C.2     8  PRO8        0.2599
     28  O         44.2830   79.3210   51.5610 O.2     8  PRO8       -0.2715
     29  CB        43.0230   76.4540   51.0720 C.3     8  PRO8        0.0310
     30  CG        42.6910   76.1850   49.6100 C.3     8  PRO8        0.0237
     31  CD        42.7400   77.5290   48.9840 C.3     8  PRO8        0.0939
     32  N         43.2380   78.7130   53.4630 N.am    9  SER9       -0.1950
     33  CA        44.1560   79.4280   54.3450 C.3     9  SER9        0.1924
     34  C         44.9300   78.3380   55.0690 C.2     9  SER9        0.2314
     35  O         44.3350   77.5310   55.7710 O.2     9  SER9       -0.2863
     36  CB        43.3930   80.2650   55.3590 C.3     9  SER9        0.2116
     37  OG        42.8670   81.4160   54.7330 O.3     9  SER9       -0.2180
     38  N         40.9650   71.0010   55.5900 N.3    15  HIS15      -0.1241
     39  CA        39.5720   71.0150   56.0380 C.3    15  HIS15       0.1621
     40  C         38.5070   70.4880   55.0700 C.2    15  HIS15       0.2264
     41  O         38.4830   70.8410   53.8920 O.2    15  HIS15      -0.2867
     42  CB        39.2490   72.4540   56.4700 C.3    15  HIS15       0.0745
     43  CG        38.1380   72.5670   57.4650 C.ar   15  HIS15       0.0817
     44  ND1       36.8080   72.5560   57.1010 N.ar   15  HIS15      -0.2268
     45  CD2       38.1610   72.7110   58.8140 C.ar   15  HIS15       0.1154
     46  CE1       36.0590   72.6900   58.1830 C.ar   15  HIS15       0.1986
     47  NE2       36.8540   72.7870   59.2340 N.ar   15  HIS15      -0.2212
     48  N         35.5350   71.2930   54.8250 N.3    17  GLY17      -0.1210
     49  CA        34.7430   72.3890   54.2920 C.3    17  GLY17       0.1956
     50  C         35.4120   72.9710   53.0610 C.2    17  GLY17       0.2612
     51  O         34.7600   73.5040   52.1570 O.2    17  GLY17      -0.2717
     52  N         36.7360   72.8690   53.0290 N.am   18  THR18      -0.1952
     53  CA        37.4960   73.3630   51.8990 C.3    18  THR18       0.1897
     54  C         37.3120   72.4080   50.7250 C.2    18  THR18       0.2313
     55  O         37.1980   72.8430   49.5790 O.2    18  THR18      -0.2863
     56  CB        38.9930   73.4580   52.2170 C.3    18  THR18       0.1794
     57  OG1       39.1950   74.4170   53.2610 O.3    18  THR18      -0.2208
     58  CG2       39.7670   73.8910   50.9690 C.3    18  THR18       0.0378
     59  N         34.7190   70.4120   50.2210 N.3    20  TYR20      -0.1227
     60  CA        33.3330   70.5960   49.7990 C.3    20  TYR20       0.1736
     61  C         33.2310   71.7520   48.8060 C.2    20  TYR20       0.2595
     62  O         32.7300   71.5900   47.6920 O.2    20  TYR20      -0.2718
     63  CB        32.4710   70.8840   51.0300 C.3    20  TYR20       0.0548
     64  CG        31.0250   71.2580   50.7680 C.ar   20  TYR20      -0.0200
     65  CD1       30.1120   70.3200   50.2910 C.ar   20  TYR20      -0.0009
     66  CD2       30.5600   72.5470   51.0470 C.ar   20  TYR20      -0.0009
     67  CE1       28.7700   70.6500   50.1040 C.ar   20  TYR20       0.0417
     68  CE2       29.2220   72.8870   50.8650 C.ar   20  TYR20       0.0417
     69  CZ        28.3330   71.9300   50.3950 C.ar   20  TYR20       0.1957
     70  OH        27.0060   72.2540   50.2410 O.3    20  TYR20      -0.2866
     71  N         33.7230   72.9170   49.2080 N.am   21  ILE21      -0.1980
     72  CA        33.6660   74.0970   48.3560 C.3    21  ILE21       0.1595
     73  C         34.4740   73.9140   47.0700 C.2    21  ILE21       0.2287
     74  O         33.9940   74.2460   45.9810 O.2    21  ILE21      -0.2864
     75  CB        34.1580   75.3560   49.1310 C.3    21  ILE21       0.0276
     76  CG1       33.1720   75.6880   50.2620 C.3    21  ILE21       0.0022
     77  CG2       34.2740   76.5530   48.2030 C.3    21  ILE21       0.0022
     78  CD1       31.7650   76.0680   49.7930 C.3    21  ILE21       0.0001
     79  N         45.8670   81.4740   50.5530 N.3    41  GLU41      -0.1245
     80  CA        45.6060   82.7100   51.2740 C.3    41  GLU41       0.1567
     81  C         46.3090   82.7340   52.6380 C.2    41  GLU41       0.2260
     82  O         45.6750   82.6060   53.6910 O.2    41  GLU41      -0.2867
     83  CB        44.0820   82.8580   51.4060 C.3    41  GLU41       0.0388
     84  CG        43.5300   84.2170   51.0270 C.3    41  GLU41       0.1160
     85  CD        42.2640   84.1560   50.1810 C.2    41  GLU41       0.3649
     86  OE1       42.3680   84.0170   48.9480 O.co2  41  GLU41      -0.2457
     87  OE2       41.1640   84.2510   50.7560 O.co2  41  GLU41      -0.2457
     88  N         42.1620   89.8590   54.6190 N.3   187  TYR187     -0.1241
     89  CA        41.4470   89.0130   53.6830 C.3   187  TYR187      0.1605
     90  C         40.6970   89.8300   52.6180 C.2   187  TYR187      0.2264
     91  O         40.8320   89.5760   51.4240 O.2   187  TYR187     -0.2867
     92  CB        40.4650   88.1220   54.4640 C.3   187  TYR187      0.0534
     93  CG        39.3480   87.5660   53.6200 C.ar  187  TYR187     -0.0201
     94  CD1       39.5940   86.5640   52.6800 C.ar  187  TYR187     -0.0009
     95  CD2       38.0580   88.1010   53.7030 C.ar  187  TYR187     -0.0009
     96  CE1       38.5870   86.1150   51.8360 C.ar  187  TYR187      0.0417
     97  CE2       37.0420   87.6600   52.8650 C.ar  187  TYR187      0.0417
     98  CZ        37.3100   86.6700   51.9340 C.ar  187  TYR187      0.1957
     99  OH        36.3090   86.2360   51.0920 O.3   187  TYR187     -0.2866
    100  N         41.5960   89.6010   48.6410 N.3   191  ASN191     -0.1240
    101  CA        40.5950   88.8000   47.9560 C.3   191  ASN191      0.1653
    102  C         40.1080   89.4530   46.6660 C.2   191  ASN191      0.2266
    103  O         40.0410   88.8070   45.6160 O.2   191  ASN191     -0.2867
    104  CB        39.4180   88.5470   48.9030 C.3   191  ASN191      0.1155
    105  CG        38.6130   87.3190   48.5250 C.2   191  ASN191      0.2627
    106  OD1       37.5030   87.4270   47.9900 O.2   191  ASN191     -0.2716
    107  ND2       39.1690   86.1380   48.8040 N.am  191  ASN191     -0.0877
    108  N         32.4830   81.2760   44.3860 N.3   204  ILE204     -0.1231
    109  CA        31.6910   80.2860   45.1030 C.3   204  ILE204      0.1692
    110  C         32.4310   80.0030   46.4070 C.2   204  ILE204      0.2592
    111  O         33.5590   79.5120   46.4050 O.2   204  ILE204     -0.2718
    112  CB        31.5610   78.9880   44.2920 C.3   204  ILE204      0.0266
    113  CG1       31.0470   79.3120   42.8830 C.3   204  ILE204      0.0019
    114  CG2       30.5920   78.0230   44.9860 C.3   204  ILE204      0.0020
    115  CD1       31.2420   78.1710   41.9090 C.3   204  ILE204      0.0001
    116  N         31.7940   80.3340   47.5190 N.am  205  ARG205     -0.1966
    117  CA        32.3930   80.1390   48.8280 C.3   205  ARG205      0.1729
    118  C         31.2630   79.8600   49.8250 C.2   205  ARG205      0.2616
    119  O         30.0890   80.0050   49.4860 O.2   205  ARG205     -0.2715
    120  CB        33.1710   81.4030   49.2160 C.3   205  ARG205      0.0348
    121  CG        32.3190   82.4980   49.8500 C.3   205  ARG205      0.0492
    122  CD        32.2100   83.7880   49.0440 C.3   205  ARG205      0.2205
    123  NE        33.4290   84.5850   48.9880 N.pl3 205  ARG205     -0.0865
    124  CZ        33.4590   85.9170   48.9000 C.cat 205  ARG205      0.5346
    125  NH1       32.3400   86.6280   48.8750 N.pl3 205  ARG205      0.1354
    126  NH2       34.6170   86.5420   48.7840 N.pl3 205  ARG205      0.1354
    127  N         31.6100   79.4630   51.0480 N.am  206  ALA206     -0.1977
    128  CA        30.5980   79.1620   52.0510 C.3   206  ALA206      0.1597
    129  C         29.8620   80.4040   52.5230 C.2   206  ALA206      0.2287
    130  O         30.3900   81.5140   52.5150 O.2   206  ALA206     -0.2864
    131  CB        31.2190   78.4490   53.2410 C.3   206  ALA206      0.0319
    132  N         29.3020   81.6360   55.2470 N.3   208  GLU208     -0.1231
    133  CA        29.9000   82.4440   56.2970 C.3   208  GLU208      0.1699
    134  C         30.4800   83.7580   55.7600 C.2   208  GLU208      0.2592
    135  O         30.7610   84.6670   56.5320 O.2   208  GLU208     -0.2718
    136  CB        30.9950   81.6540   57.0010 C.3   208  GLU208      0.0402
    137  CG        32.2410   81.5110   56.1730 C.3   208  GLU208      0.1161
    138  CD        33.2250   80.5430   56.7790 C.2   208  GLU208      0.3649
    139  OE1       33.3270   80.5050   58.0250 O.co2 208  GLU208     -0.2457
    140  OE2       33.9040   79.8310   56.0030 O.co2 208  GLU208     -0.2457
    141  N         30.6470   83.8540   54.4420 N.am  209  TRP209     -0.1976
    142  CA        31.2000   85.0550   53.8130 C.3   209  TRP209      0.1640
    143  C         30.1830   85.9930   53.1710 C.2   209  TRP209      0.2290
    144  O         30.5630   87.0510   52.6670 O.2   209  TRP209     -0.2864
    145  CB        32.2050   84.6750   52.7380 C.3   209  TRP209      0.0576
    146  CG        33.2430   83.7550   53.2140 C.ar  209  TRP209      0.0006
    147  CD1       33.2670   82.3920   53.0730 C.ar  209  TRP209      0.0946
    148  CD2       34.4260   84.1070   53.9110 C.ar  209  TRP209      0.0152
    149  NE1       34.4020   81.8770   53.6380 N.ar  209  TRP209     -0.2442
    150  CE2       35.1370   82.9110   54.1590 C.ar  209  TRP209      0.0810
    151  CE3       34.9680   85.3220   54.3480 C.ar  209  TRP209      0.0012
    152  CZ2       36.3590   82.8910   54.8280 C.ar  209  TRP209      0.0191
    153  CZ3       36.1830   85.3030   55.0110 C.ar  209  TRP209      0.0001
    154  CH2       36.8660   84.0960   55.2410 C.ar  209  TRP209      0.0015
    155  N         26.0090   76.4990   51.5310 N.3   234  PRO234     -0.2102
    156  CA        25.7170   76.3340   52.9570 C.3   234  PRO234      0.1504
    157  C         26.9290   75.7990   53.7270 C.2   234  PRO234      0.2576
    158  O         27.8340   75.2170   53.1350 O.2   234  PRO234     -0.2718
    159  CB        24.5420   75.3570   52.9510 C.3   234  PRO234      0.0282
    160  CG        24.8060   74.5260   51.7140 C.3   234  PRO234      0.0208
    161  CD        25.2390   75.5470   50.7060 C.3   234  PRO234      0.0893
    162  N         26.9580   76.0200   55.0380 N.am  235  LEU235     -0.1966
    163  CA        28.0550   75.5260   55.8680 C.3   235  LEU235      0.1728
    164  C         27.7970   74.0930   56.3290 C.2   235  LEU235      0.2616
    165  O         26.6840   73.7500   56.7480 O.2   235  LEU235     -0.2715
    166  CB        28.2350   76.3940   57.1190 C.3   235  LEU235      0.0311
    167  CG        28.9840   77.7260   57.0530 C.3   235  LEU235      0.0022
    168  CD1       30.3490   77.5120   56.4140 C.3   235  LEU235      0.0001
    169  CD2       28.1800   78.7300   56.2650 C.3   235  LEU235      0.0001
    170  N         28.8180   73.2520   56.2450 N.am  236  LEU236     -0.1977
    171  CA        28.6880   71.8880   56.7270 C.3   236  LEU236      0.1596
    172  C         28.5020   72.0550   58.2460 C.2   236  LEU236      0.2287
    173  O         29.0890   72.9620   58.8440 O.2   236  LEU236     -0.2864
    174  CB        29.9580   71.1000   56.4160 C.3   236  LEU236      0.0297
    175  CG        30.0560   70.3000   55.1100 C.3   236  LEU236      0.0022
    176  CD1       29.4690   71.0430   53.9360 C.3   236  LEU236      0.0001
    177  CD2       31.5190   69.9620   54.8800 C.3   236  LEU236      0.0001
    178  N         28.2320   75.1500   62.8210 N.3   243  LYS243     -0.1231
    179  CA        29.1090   74.8480   61.6850 C.3   243  LYS243      0.1693
    180  C         30.1980   73.8740   62.1260 C.2   243  LYS243      0.2591
    181  O         30.8400   74.0560   63.1610 O.2   243  LYS243     -0.2718
    182  CB        29.7210   76.1220   61.0610 C.3   243  LYS243      0.0285
    183  CG        30.9390   76.6740   61.7390 C.3   243  LYS243      0.0035
    184  CD        31.5880   77.7670   60.9030 C.3   243  LYS243      0.0206
    185  CE        32.8410   78.2860   61.5980 C.3   243  LYS243      0.1093
    186  NZ        33.4530   79.4410   60.8930 N.3   243  LYS243     -0.1314
    187  N         30.3680   72.8250   61.3320 N.am  244  ILE244     -0.1980
    188  CA        31.3250   71.7680   61.6100 C.3   244  ILE244      0.1595
    189  C         32.6280   72.2880   62.2300 C.2   244  ILE244      0.2287
    190  O         33.1540   73.3210   61.8170 O.2   244  ILE244     -0.2864
    191  CB        31.5950   70.9550   60.3090 C.3   244  ILE244      0.0276
    192  CG1       32.0270   69.5360   60.6720 C.3   244  ILE244      0.0022
    193  CG2       32.6440   71.6450   59.4370 C.3   244  ILE244      0.0022
    194  CD1       31.9960   68.5850   59.4890 C.3   244  ILE244      0.0001
@<TRIPOS>BOND
     1     1     2    1
     2   115   113    1
     3     2     5    1
     4     2     3    1
     5     5     6    1
     6   113   112    1
     7     6     7    1
     8     3     4    2
     9     3    12   am
    10     7     8    1
    11   112   114    1
    12   112   109    1
    13   108   109    1
    14    12    13    1
    15     8     9    2
    16   109   110    1
    17   103   102    2
    18    18    16    1
    19     9    11    1
    20     9    10    1
    21    13    16    1
    22    13    14    1
    23    74    73    2
    24    15    14    2
    25    16    17    1
    26   111   110    2
    27   110   116   am
    28    14    20   am
    29   102   101    1
    30    73    72    1
    31    17    19    1
    32   116   117    1
    33    62    61    2
    34    20    21    1
    35   101   100    1
    36   101   104    1
    37   106   105    2
    38    77    75    1
    39    24    21    1
    40    72    75    1
    41    72    71    1
    42    21    22    1
    43   105   107   am
    44   105   104    1
    45   126   124    1
    46    61    71   am
    47    61    60    1
    48   117   120    1
    49   117   118    1
    50   125   124    1
    51   124   123    2
    52    86    85   ar
    53    31    30    1
    54    31    25    1
    55   123   122    1
    56   122   121    1
    57    75    76    1
    58   120   121    1
    59   119   118    2
    60    55    54    2
    61    30    29    1
    62    78    76    1
    63    60    59    1
    64    60    63    1
    65    22    25   am
    66    22    23    2
    67   118   127   am
    68    25    26    1
    69    67    65   ar
    70    67    69   ar
    71    85    87   ar
    72    85    84    1
    73    70    69    1
    74    65    64   ar
    75    69    68   ar
    76    79    80    1
    77   161   155    1
    78   161   160    1
    79    54    53    1
    80    64    63    1
    81    64    66   ar
    82    68    66   ar
    83    58    56    1
    84    84    83    1
    85   127   128    1
    86    29    26    1
    87    99    98    1
    88    80    83    1
    89    80    81    1
    90    26    27    1
    91    91    90    2
    92   155   156    1
    93    28    27    2
    94   160   159    1
    95    96    98   ar
    96    96    94   ar
    97    53    56    1
    98    53    52    1
    99    98    97   ar
   100   128   129    1
   101   128   131    1
   102    27    32   am
   103    51    50    2
   104    56    57    1
   105   130   129    2
   106    90    89    1
   107    81    82    2
   108   144   143    2
   109    94    93   ar
   110   145   146    1
   111   145   142    1
   112    97    95   ar
   113   159   156    1
   114   156   157    1
   115    52    50   am
   116    50    49    1
   117   147   146   ar
   118   147   149   ar
   119   158   157    2
   120   143   142    1
   121   146   148   ar
   122    32    33    1
   123    93    95   ar
   124    93    92    1
   125   149   150   ar
   126    89    92    1
   127    89    88    1
   128   157   162   am
   129   142   141    1
   130    41    40    2
   131   148   150   ar
   132   148   151   ar
   133   176   175    1
   134   150   152   ar
   135    49    48    1
   136    33    34    1
   137    33    36    1
   138   151   153   ar
   139   141   134   am
   140    37    36    1
   141   152   154   ar
   142   177   175    1
   143   153   154   ar
   144   162   163    1
   145    34    35    2
   146    40    39    1
   147   175   174    1
   148   132   133    1
   149    38    39    1
   150   134   133    1
   151   134   135    2
   152   163   164    1
   153   163   166    1
   154   140   138   ar
   155    39    42    1
   156   137   138    1
   157   137   136    1
   158   170   164   am
   159   170   171    1
   160   169   167    1
   161   133   136    1
   162   164   165    2
   163   168   167    1
   164   174   171    1
   165    42    43    1
   166   171   172    1
   167   138   139   ar
   168   167   166    1
   169    44    43   ar
   170    44    46   ar
   171    43    45   ar
   172    46    47   ar
   173   172   173    2
   174    45    47   ar
   175   193   191    1
   176   194   192    1
   177   191   192    1
   178   191   188    1
   179   186   185    1
   180   184   185    1
   181   184   183    1
   182   182   179    1
   183   182   183    1
   184   187   188    1
   185   187   180   am
   186   188   189    1
   187   179   180    1
   188   179   178    1
   189   190   189    2
   190   180   181    2
