@<TRIPOS>MOLECULE
tmp/1n7fB00.pdb
 142 135 0 0 0
SMALL
GASTEIGER

@<TRIPOS>ATOM
      1  N         71.8300  -64.7860   -4.0840 N.3    10  ARG10      -0.1245
      2  CA        72.4050  -64.8290   -2.7490 C.3    10  ARG10       0.1563
      3  C         73.8880  -65.1530   -2.7980 C.2    10  ARG10       0.2260
      4  O         74.6000  -64.9640   -1.8130 O.2    10  ARG10      -0.2867
      5  CB        71.6700  -65.8600   -1.8820 C.3    10  ARG10       0.0307
      6  CG        71.7380  -67.2890   -2.3930 C.3    10  ARG10       0.0489
      7  CD        70.9480  -68.2370   -1.4960 C.3    10  ARG10       0.2205
      8  NE        70.9330  -69.5990   -2.0250 N.pl3  10  ARG10      -0.0865
      9  CZ        70.2220  -70.6010   -1.5120 C.cat  10  ARG10       0.5346
     10  NH1       69.4580  -70.4020   -0.4450 N.pl3  10  ARG10       0.1354
     11  NH2       70.2700  -71.8030   -2.0710 N.pl3  10  ARG10       0.1354
     12  N         73.4400  -65.4510    2.7930 N.3    14  PRO14      -0.2102
     13  CA        72.0180  -65.7150    3.0190 C.3    14  PRO14       0.1504
     14  C         71.1150  -64.7240    2.2920 C.2    14  PRO14       0.2576
     15  O         71.5670  -63.6760    1.8320 O.2    14  PRO14      -0.2718
     16  CB        71.8920  -65.5950    4.5310 C.3    14  PRO14       0.0282
     17  CG        72.8440  -64.4850    4.8310 C.3    14  PRO14       0.0208
     18  CD        74.0540  -64.8480    3.9900 C.3    14  PRO14       0.0893
     19  N         69.8370  -65.0710    2.1880 N.am   15  LEU15      -0.1966
     20  CA        68.8590  -64.2090    1.5400 C.3    15  LEU15       0.1728
     21  C         68.4210  -63.1440    2.5360 C.2    15  LEU15       0.2617
     22  O         67.9630  -62.0670    2.1480 O.2    15  LEU15      -0.2715
     23  CB        67.6390  -65.0240    1.1080 C.3    15  LEU15       0.0311
     24  CG        67.8680  -66.1200    0.0670 C.3    15  LEU15       0.0022
     25  CD1       66.6370  -67.0080   -0.0030 C.3    15  LEU15       0.0001
     26  CD2       68.1750  -65.4940   -1.2870 C.3    15  LEU15       0.0001
     27  N         68.5690  -63.4570    3.8220 N.am   16  GLY16      -0.1940
     28  CA        68.1780  -62.5250    4.8650 C.3    16  GLY16       0.2014
     29  C         66.6810  -62.5920    5.0710 C.2    16  GLY16       0.2639
     30  O         66.0190  -61.5770    5.3090 O.2    16  GLY16      -0.2714
     31  N         66.1460  -63.8040    4.9750 N.am   17  ILE17      -0.1963
     32  CA        64.7180  -64.0330    5.1270 C.3    17  ILE17       0.1727
     33  C         64.4430  -65.1540    6.1180 C.2    17  ILE17       0.2617
     34  O         65.1850  -66.1290    6.1930 O.2    17  ILE17      -0.2715
     35  CB        64.0740  -64.4410    3.7770 C.3    17  ILE17       0.0290
     36  CG1       64.2570  -63.3250    2.7480 C.3    17  ILE17       0.0022
     37  CG2       62.6000  -64.7510    3.9680 C.3    17  ILE17       0.0023
     38  CD1       63.6990  -63.6590    1.3780 C.3    17  ILE17       0.0001
     39  N         63.3730  -64.9940    6.8820 N.am   18  THR18      -0.1937
     40  CA        62.9530  -66.0090    7.8280 C.3    18  THR18       0.2028
     41  C         61.5290  -66.3590    7.4360 C.2    18  THR18       0.2642
     42  O         60.6710  -65.4800    7.3280 O.2    18  THR18      -0.2714
     43  CB        62.9580  -65.5030    9.2820 C.3    18  THR18       0.1808
     44  OG1       64.3030  -65.2260    9.6880 O.3    18  THR18      -0.2208
     45  CG2       62.3680  -66.5590   10.2100 C.3    18  THR18       0.0379
     46  N         61.2880  -67.6380    7.1900 N.am   19  ILE19      -0.1963
     47  CA        59.9590  -68.0870    6.8220 C.3    19  ILE19       0.1727
     48  C         59.3590  -68.8590    7.9830 C.2    19  ILE19       0.2617
     49  O         60.0810  -69.3450    8.8540 O.2    19  ILE19      -0.2715
     50  CB        59.9860  -68.9710    5.5560 C.3    19  ILE19       0.0290
     51  CG1       60.8310  -70.2250    5.7930 C.3    19  ILE19       0.0022
     52  CG2       60.5290  -68.1620    4.3880 C.3    19  ILE19       0.0023
     53  CD1       60.8790  -71.1580    4.5990 C.3    19  ILE19       0.0001
     54  N         58.0360  -68.9430    8.0020 N.am   20  SER20      -0.1936
     55  CA        57.3190  -69.6530    9.0540 C.3    20  SER20       0.2055
     56  C         56.2570  -70.5380    8.4380 C.2    20  SER20       0.2644
     57  O         55.7260  -70.2390    7.3690 O.2    20  SER20      -0.2714
     58  CB        56.6500  -68.6620   10.0150 C.3    20  SER20       0.2130
     59  OG        57.6140  -67.9270   10.7460 O.3    20  SER20      -0.2179
     60  N         55.9410  -71.6340    9.1170 N.am   21  GLY21      -0.1939
     61  CA        54.9300  -72.5270    8.5990 C.3    21  GLY21       0.2014
     62  C         54.8150  -73.7660    9.4570 C.2    21  GLY21       0.2640
     63  O         55.6500  -74.0050   10.3300 O.2    21  GLY21      -0.2714
     64  N         53.7770  -74.5530    9.2070 N.am   22  THR22      -0.1936
     65  CA        53.5600  -75.7830    9.9620 C.3    22  THR22       0.2028
     66  C         53.8140  -76.9650    9.0430 C.2    22  THR22       0.2642
     67  O         54.1940  -76.7920    7.8810 O.2    22  THR22      -0.2714
     68  CB        52.1150  -75.8890   10.4640 C.3    22  THR22       0.1808
     69  OG1       51.2460  -76.1600    9.3570 O.3    22  THR22      -0.2208
     70  CG2       51.6890  -74.5940   11.1290 C.3    22  THR22       0.0379
     71  N         53.5970  -78.1680    9.5610 N.am   23  GLU23      -0.1963
     72  CA        53.7940  -79.3620    8.7580 C.3    23  GLU23       0.1733
     73  C         52.4660  -79.8210    8.1680 C.2    23  GLU23       0.2616
     74  O         52.3770  -80.8830    7.5510 O.2    23  GLU23      -0.2715
     75  CB        54.4490  -80.4610    9.5940 C.3    23  GLU23       0.0429
     76  CG        55.8910  -80.1320    9.9660 C.3    23  GLU23       0.1163
     77  CD        56.7910  -79.9620    8.7440 C.2    23  GLU23       0.3649
     78  OE1       57.1100  -80.9750    8.0870 O.co2  23  GLU23      -0.2457
     79  OE2       57.1770  -78.8130    8.4360 O.co2  23  GLU23      -0.2457
     80  N         51.4310  -79.0100    8.3650 N.am   24  GLU24      -0.1977
     81  CA        50.1170  -79.3000    7.8000 C.3    24  GLU24       0.1602
     82  C         50.2110  -78.8350    6.3490 C.2    24  GLU24       0.2287
     83  O         50.3500  -77.6400    6.0800 O.2    24  GLU24      -0.2864
     84  CB        49.0250  -78.5190    8.5340 C.3    24  GLU24       0.0415
     85  CG        48.2270  -79.3420    9.5380 C.3    24  GLU24       0.1163
     86  CD        49.0860  -79.9430   10.6340 C.2    24  GLU24       0.3649
     87  OE1       49.9810  -80.7560   10.3190 O.co2  24  GLU24      -0.2457
     88  OE2       48.8640  -79.6040   11.8150 O.co2  24  GLU24      -0.2457
     89  N         48.4650  -75.5110    5.1350 N.3    27  ASP27      -0.1239
     90  CA        48.8320  -74.2310    5.7350 C.3    27  ASP27       0.1674
     91  C         49.8190  -73.4570    4.8550 C.2    27  ASP27       0.2266
     92  O         50.7170  -74.0350    4.2450 O.2    27  ASP27      -0.2867
     93  CB        49.4350  -74.4560    7.1220 C.3    27  ASP27       0.1410
     94  CG        48.3910  -74.8540    8.1540 C.2    27  ASP27       0.3668
     95  OD1       48.7820  -75.2190    9.2830 O.co2  27  ASP27      -0.2456
     96  OD2       47.1790  -74.7930    7.8400 O.co2  27  ASP27      -0.2456
     97  N         58.1010  -64.3080    7.6120 N.3    32  SER32      -0.1217
     98  CA        57.8210  -63.7650    8.9380 C.3    32  SER32       0.1889
     99  C         58.7220  -62.6360    9.4080 C.2    32  SER32       0.2288
    100  O         58.3000  -61.8070   10.2130 O.2    32  SER32      -0.2866
    101  CB        57.8140  -64.8960    9.9760 C.3    32  SER32       0.2089
    102  OG        58.9870  -65.6830    9.9010 O.3    32  SER32      -0.2183
    103  N         66.1300  -59.9610    7.8440 N.3    35  THR35      -0.1218
    104  CA        67.3620  -59.5940    8.5250 C.3    35  THR35       0.1862
    105  C         67.6930  -58.1400    8.2150 C.2    35  THR35       0.2287
    106  O         67.7540  -57.7460    7.0500 O.2    35  THR35      -0.2866
    107  CB        68.5340  -60.4740    8.0590 C.3    35  THR35       0.1770
    108  OG1       68.2710  -61.8370    8.4110 O.3    35  THR35      -0.2211
    109  CG2       69.8410  -60.0200    8.7060 C.3    35  THR35       0.0375
    110  N         56.2820  -77.0060    5.7310 N.3    65  LEU65      -0.1245
    111  CA        57.4320  -76.1100    5.8400 C.3    65  LEU65       0.1561
    112  C         58.7250  -76.8530    5.5270 C.2    65  LEU65       0.2260
    113  O         59.6040  -76.3200    4.8620 O.2    65  LEU65      -0.2867
    114  CB        57.5330  -75.5190    7.2520 C.3    65  LEU65       0.0270
    115  CG        58.7570  -74.6340    7.5220 C.3    65  LEU65       0.0019
    116  CD1       58.6340  -73.3380    6.7260 C.3    65  LEU65       0.0001
    117  CD2       58.8690  -74.3250    9.0150 C.3    65  LEU65       0.0001
    118  N         62.0940  -75.7410    3.2810 N.3    69  ILE69      -0.1245
    119  CA        63.4570  -75.7220    3.7960 C.3    69  ILE69       0.1561
    120  C         64.3480  -76.4990    2.8300 C.2    69  ILE69       0.2260
    121  O         65.4310  -76.0400    2.4570 O.2    69  ILE69      -0.2867
    122  CB        63.5360  -76.3650    5.2070 C.3    69  ILE69       0.0252
    123  CG1       62.6650  -75.5720    6.1860 C.3    69  ILE69       0.0019
    124  CG2       64.9830  -76.4000    5.6840 C.3    69  ILE69       0.0019
    125  CD1       62.5510  -76.1970    7.5840 C.3    69  ILE69       0.0001
    126  N         64.9900  -74.5770   -0.4560 N.3    72  LEU72      -0.1231
    127  CA        65.9050  -73.4540   -0.2670 C.3    72  LEU72       0.1693
    128  C         67.3630  -73.9120   -0.1580 C.2    72  LEU72       0.2591
    129  O         68.2660  -73.2820   -0.7120 O.2    72  LEU72      -0.2718
    130  CB        65.5060  -72.6480    0.9790 C.3    72  LEU72       0.0284
    131  CG        64.2300  -71.8140    0.8220 C.3    72  LEU72       0.0019
    132  CD1       63.7460  -71.2970    2.1770 C.3    72  LEU72       0.0001
    133  CD2       64.5110  -70.6630   -0.1290 C.3    72  LEU72       0.0001
    134  N         67.5940  -75.0150    0.5410 N.am   73  GLN73      -0.1979
    135  CA        68.9490  -75.5230    0.7060 C.3    73  GLN73       0.1601
    136  C         69.5410  -76.0250   -0.6140 C.2    73  GLN73       0.2287
    137  O         70.7590  -76.0070   -0.8000 O.2    73  GLN73      -0.2864
    138  CB        68.9620  -76.6350    1.7590 C.3    73  GLN73       0.0394
    139  CG        68.4160  -76.1820    3.1090 C.3    73  GLN73       0.0908
    140  CD        68.3940  -77.2920    4.1410 C.2    73  GLN73       0.2608
    141  OE1       68.0960  -78.4400    3.8240 O.2    73  GLN73      -0.2717
    142  NE2       68.6920  -76.9480    5.3890 N.am   73  GLN73      -0.0878
@<TRIPOS>BOND
     1     1     2    1
     2     3     2    1
     3     3     4    2
     4     2     5    1
     5     6     5    1
     6     6     7    1
     7    11     9    1
     8     8     9    2
     9     8     7    1
    10     9    10    1
    11    26    24    1
    12   137   136    2
    13   129   128    2
    14   136   135    1
    15   126   127    1
    16   127   128    1
    17   127   130    1
    18   128   134   am
    19   133   131    1
    20    25    24    1
    21    24    23    1
    22   134   135    1
    23   135   138    1
    24   131   130    1
    25   131   132    1
    26    23    20    1
    27    38    36    1
    28    20    19    1
    29    20    21    1
    30   138   139    1
    31    15    14    2
    32    22    21    2
    33    19    14   am
    34    14    13    1
    35   121   120    2
    36    21    27   am
    37    36    35    1
    38    12    13    1
    39    12    18    1
    40   120   119    1
    41    13    16    1
    42   139   140    1
    43   118   119    1
    44    35    37    1
    45    35    32    1
    46   119   122    1
    47    27    28    1
    48   141   140    2
    49    18    17    1
    50   140   142   am
    51    92    91    2
    52    52    50    1
    53    16    17    1
    54    53    51    1
    55    91    90    1
    56   113   112    2
    57    28    29    1
    58    31    29   am
    59    31    32    1
    60    29    30    2
    61    32    33    1
    62    89    90    1
    63   122   124    1
    64   122   123    1
    65   112   111    1
    66    50    51    1
    67    50    47    1
    68   110   111    1
    69    90    93    1
    70   111   114    1
    71    83    82    2
    72    33    34    2
    73    33    39   am
    74   123   125    1
    75    82    81    1
    76   116   115    1
    77    47    46    1
    78    47    48    1
    79    39    40    1
    80   106   105    2
    81    93    94    1
    82    46    41   am
    83   114   115    1
    84    42    41    2
    85    57    56    2
    86    41    40    1
    87   115   117    1
    88    74    73    2
    89    97    98    1
    90    81    80    1
    91    81    84    1
    92    40    43    1
    93    96    94   ar
    94   103   104    1
    95    67    66    2
    96    48    54   am
    97    48    49    2
    98    54    55    1
    99   107   108    1
   100   107   104    1
   101   107   109    1
   102    78    77   ar
   103    94    95   ar
   104    73    80   am
   105    73    72    1
   106   105   104    1
   107    79    77   ar
   108    56    55    1
   109    56    60   am
   110    84    85    1
   111    61    60    1
   112    61    62    1
   113    77    76    1
   114    72    71    1
   115    72    75    1
   116    98    99    1
   117    98   101    1
   118    66    71   am
   119    66    65    1
   120    55    58    1
   121    64    62   am
   122    64    65    1
   123    43    44    1
   124    43    45    1
   125    69    68    1
   126    99   100    2
   127    62    63    2
   128    85    86    1
   129    75    76    1
   130   102   101    1
   131    65    68    1
   132    58    59    1
   133    87    86   ar
   134    68    70    1
   135    86    88   ar
