@<TRIPOS>MOLECULE
tmp/1n7gA02.pdb
 255 250 0 0 0
SMALL
GASTEIGER

@<TRIPOS>ATOM
      1  N         10.5200   24.7080   36.4880 N.3    83  SER83      -0.1202
      2  CA         9.2210   25.3560   36.5460 C.3    83  SER83       0.2020
      3  C          8.4530   25.4110   37.8580 C.2    83  SER83       0.2619
      4  O          7.3610   25.9720   37.8980 O.2    83  SER83      -0.2717
      5  CB         8.3210   24.7410   35.4780 C.3    83  SER83       0.2103
      6  OG         8.0830   23.3790   35.7660 O.3    83  SER83      -0.2182
      7  N          8.9850   24.8390   38.9280 N.am   84  HIS84      -0.1961
      8  CA         8.2430   24.9040   40.1780 C.3    84  HIS84       0.1787
      9  C          8.5580   26.1820   40.9470 C.2    84  HIS84       0.2620
     10  O          9.7140   26.4850   41.2370 O.2    84  HIS84      -0.2715
     11  CB         8.5150   23.6790   41.0440 C.3    84  HIS84       0.0785
     12  CG         7.4310   23.4140   42.0440 C.ar   84  HIS84       0.0821
     13  ND1        7.2980   24.1370   43.2100 N.ar   84  HIS84      -0.2267
     14  CD2        6.3840   22.5550   42.0140 C.ar   84  HIS84       0.1154
     15  CE1        6.2150   23.7380   43.8530 C.ar   84  HIS84       0.1986
     16  NE2        5.6420   22.7790   43.1490 N.ar   84  HIS84      -0.2212
     17  N          7.5070   26.9290   41.2640 N.am   85  VAL85      -0.1977
     18  CA         7.6230   28.1900   41.9850 C.3    85  VAL85       0.1596
     19  C          8.1480   28.0520   43.4160 C.2    85  VAL85       0.2287
     20  O          9.0230   28.8170   43.8290 O.2    85  VAL85      -0.2864
     21  CB         6.2580   28.9240   41.9980 C.3    85  VAL85       0.0276
     22  CG1        6.3070   30.1310   42.9140 C.3    85  VAL85       0.0022
     23  CG2        5.9040   29.3600   40.5770 C.3    85  VAL85       0.0022
     24  N          5.0260   33.0670   31.2480 N.3   128  SER128     -0.1202
     25  CA         4.0300   32.6170   32.2040 C.3   128  SER128      0.2020
     26  C          3.2580   33.7490   32.8620 C.2   128  SER128      0.2619
     27  O          3.7670   34.8570   33.0080 O.2   128  SER128     -0.2717
     28  CB         4.7170   31.7850   33.2840 C.3   128  SER128      0.2103
     29  OG         3.8390   31.5380   34.3640 O.3   128  SER128     -0.2182
     30  N          2.0250   33.4530   33.2650 N.am  129  SER129     -0.1937
     31  CA         1.1770   34.4320   33.9370 C.3   129  SER129      0.2055
     32  C          1.8060   34.7830   35.2820 C.2   129  SER129      0.2642
     33  O          1.5440   35.8390   35.8550 O.2   129  SER129     -0.2714
     34  CB        -0.2230   33.8550   34.1470 C.3   129  SER129      0.2130
     35  OG        -0.1500   32.5520   34.6880 O.3   129  SER129     -0.2179
     36  N          2.6470   33.8840   35.7740 N.am  130  GLU130     -0.1976
     37  CA         3.3340   34.0880   37.0350 C.3   130  GLU130      0.1602
     38  C          4.1080   35.4140   36.9750 C.2   130  GLU130      0.2287
     39  O          4.3500   36.0480   38.0020 O.2   130  GLU130     -0.2864
     40  CB         4.2810   32.9090   37.2820 C.3   130  GLU130      0.0415
     41  CG         4.6250   32.6340   38.7320 C.3   130  GLU130      0.1163
     42  CD         3.4600   32.0950   39.5330 C.2   130  GLU130      0.3649
     43  OE1        2.4320   31.7200   38.9350 O.co2 130  GLU130     -0.2457
     44  OE2        3.5760   32.0350   40.7700 O.co2 130  GLU130     -0.2457
     45  N         11.4780   32.3600   40.3610 N.3   151  TYR151     -0.1241
     46  CA        11.0410   31.7740   39.1000 C.3   151  TYR151      0.1605
     47  C         10.3590   32.8200   38.2120 C.2   151  TYR151      0.2264
     48  O         10.7220   32.9970   37.0450 O.2   151  TYR151     -0.2867
     49  CB        10.0640   30.6320   39.3680 C.3   151  TYR151      0.0534
     50  CG         9.2610   30.2330   38.1490 C.ar  151  TYR151     -0.0201
     51  CD1        9.7840   29.3580   37.1950 C.ar  151  TYR151     -0.0009
     52  CD2        7.9860   30.7500   37.9390 C.ar  151  TYR151     -0.0009
     53  CE1        9.0490   29.0090   36.0620 C.ar  151  TYR151      0.0417
     54  CE2        7.2480   30.4120   36.8180 C.ar  151  TYR151      0.0417
     55  CZ         7.7770   29.5430   35.8810 C.ar  151  TYR151      0.1957
     56  OH         7.0330   29.2130   34.7690 O.3   151  TYR151     -0.2866
     57  N          1.4350   32.1850   28.8110 N.3   178  LEU178     -0.1231
     58  CA         0.4530   31.1890   29.1950 C.3   178  LEU178      0.1693
     59  C          0.1260   31.1470   30.6770 C.2   178  LEU178      0.2592
     60  O          1.0040   31.2240   31.5370 O.2   178  LEU178     -0.2718
     61  CB         0.9070   29.7990   28.7320 C.3   178  LEU178      0.0284
     62  CG         0.6130   29.4280   27.2700 C.3   178  LEU178      0.0019
     63  CD1        1.2130   30.4620   26.3300 C.3   178  LEU178      0.0001
     64  CD2        1.1670   28.0430   26.9770 C.3   178  LEU178      0.0001
     65  N         -1.1630   31.0380   30.9630 N.am  179  PHE179     -0.1962
     66  CA        -1.6180   30.9370   32.3310 C.3   179  PHE179      0.1771
     67  C         -1.5780   29.4540   32.6570 C.2   179  PHE179      0.2620
     68  O         -1.3200   28.6310   31.7710 O.2   179  PHE179     -0.2715
     69  CB        -3.0260   31.5130   32.4590 C.3   179  PHE179      0.0574
     70  CG        -3.0420   33.0120   32.5260 C.ar  179  PHE179     -0.0200
     71  CD1       -2.4880   33.7720   31.4970 C.ar  179  PHE179     -0.0042
     72  CD2       -3.5470   33.6650   33.6440 C.ar  179  PHE179     -0.0042
     73  CE1       -2.4300   35.1560   31.5860 C.ar  179  PHE179     -0.0003
     74  CE2       -3.4960   35.0480   33.7420 C.ar  179  PHE179     -0.0003
     75  CZ        -2.9350   35.7960   32.7140 C.ar  179  PHE179     -0.0000
     76  N         -1.8150   29.1150   33.9190 N.am  180  ASN180     -0.1958
     77  CA        -1.7690   27.7260   34.3560 C.3   180  ASN180      0.1819
     78  C         -2.5120   26.7590   33.4390 C.2   180  ASN180      0.2621
     79  O         -3.6570   27.0040   33.0530 O.2   180  ASN180     -0.2715
     80  CB        -2.3430   27.5910   35.7740 C.3   180  ASN180      0.1195
     81  CG        -1.5460   28.3610   36.8170 C.2   180  ASN180      0.2630
     82  OD1       -1.3600   29.5760   36.7070 O.2   180  ASN180     -0.2716
     83  ND2       -1.0800   27.6560   37.8440 N.am  180  ASN180     -0.0877
     84  N         -1.8450   25.6680   33.0770 N.am  181  HIS181     -0.1959
     85  CA        -2.4690   24.6330   32.2650 C.3   181  HIS181      0.1787
     86  C         -2.0110   23.2720   32.7650 C.2   181  HIS181      0.2620
     87  O         -0.8180   23.0380   32.9910 O.2   181  HIS181     -0.2715
     88  CB        -2.1860   24.8070   30.7620 C.3   181  HIS181      0.0785
     89  CG        -0.7670   25.1350   30.4270 C.ar  181  HIS181      0.0821
     90  ND1       -0.2330   26.3920   30.6000 N.ar  181  HIS181     -0.2267
     91  CD2        0.2110   24.3850   29.8700 C.ar  181  HIS181      0.1154
     92  CE1        1.0120   26.4040   30.1590 C.ar  181  HIS181      0.1986
     93  NE2        1.3050   25.1970   29.7110 N.ar  181  HIS181     -0.2212
     94  N         -2.9860   22.3890   32.9520 N.am  182  GLU182     -0.1977
     95  CA        -2.7570   21.0560   33.4820 C.3   182  GLU182      0.1602
     96  C         -3.1600   19.9430   32.5140 C.2   182  GLU182      0.2287
     97  O         -3.6190   20.1930   31.4000 O.2   182  GLU182     -0.2864
     98  CB        -3.5480   20.8940   34.7880 C.3   182  GLU182      0.0415
     99  CG        -3.8480   22.2090   35.5150 C.3   182  GLU182      0.1163
    100  CD        -2.6000   22.8770   36.0690 C.2   182  GLU182      0.3649
    101  OE1       -2.3070   24.0250   35.6830 O.co2 182  GLU182     -0.2457
    102  OE2       -1.9090   22.2540   36.8960 O.co2 182  GLU182     -0.2457
    103  N          0.5840   16.2410   34.0990 N.3   186  ARG186     -0.1245
    104  CA         1.0810   17.3200   34.9430 C.3   186  ARG186      0.1563
    105  C          1.9930   16.7870   36.0460 C.2   186  ARG186      0.2260
    106  O          1.8080   15.6720   36.5240 O.2   186  ARG186     -0.2867
    107  CB        -0.1060   18.0650   35.5560 C.3   186  ARG186      0.0307
    108  CG         0.2520   19.2430   36.4450 C.3   186  ARG186      0.0489
    109  CD         1.1050   20.2740   35.7310 C.3   186  ARG186      0.2205
    110  NE         0.7590   21.6310   36.1430 N.pl3 186  ARG186     -0.0865
    111  CZ         1.5730   22.6780   36.0470 C.cat 186  ARG186      0.5346
    112  NH1        2.7920   22.5290   35.5590 N.pl3 186  ARG186      0.1354
    113  NH2        1.1580   23.8790   36.4200 N.pl3 186  ARG186      0.1354
    114  N          3.9070   17.4390   41.7410 N.3   189  ASN189     -0.1225
    115  CA         4.2080   18.4190   42.7780 C.3   189  ASN189      0.1785
    116  C          3.4040   19.6990   42.5860 C.2   189  ASN189      0.2597
    117  O          3.4800   20.6170   43.3960 O.2   189  ASN189     -0.2718
    118  CB         5.7010   18.7320   42.7750 C.3   189  ASN189      0.1169
    119  CG         6.5390   17.5430   43.1950 C.2   189  ASN189      0.2627
    120  OD1        7.6880   17.3920   42.7660 O.2   189  ASN189     -0.2716
    121  ND2        5.9720   16.6930   44.0490 N.am  189  ASN189     -0.0877
    122  N          2.6430   19.7670   41.5010 N.am  190  PHE190     -0.1962
    123  CA         1.8060   20.9320   41.2560 C.3   190  PHE190      0.1771
    124  C          0.4560   20.6290   41.8910 C.2   190  PHE190      0.2619
    125  O          0.0090   19.4790   41.9120 O.2   190  PHE190     -0.2715
    126  CB         1.6900   21.2090   39.7560 C.3   190  PHE190      0.0574
    127  CG         2.9830   21.6400   39.1370 C.ar  190  PHE190     -0.0200
    128  CD1        3.8460   20.7060   38.5700 C.ar  190  PHE190     -0.0042
    129  CD2        3.3850   22.9700   39.1980 C.ar  190  PHE190     -0.0042
    130  CE1        5.0880   21.0920   38.0800 C.ar  190  PHE190     -0.0003
    131  CE2        4.6320   23.3640   38.7100 C.ar  190  PHE190     -0.0003
    132  CZ         5.4810   22.4250   38.1530 C.ar  190  PHE190     -0.0000
    133  N         -0.1850   21.6680   42.4080 N.am  191  VAL191     -0.1963
    134  CA        -1.4390   21.5200   43.1270 C.3   191  VAL191      0.1727
    135  C         -2.5600   20.7160   42.4770 C.2   191  VAL191      0.2616
    136  O         -3.1430   19.8500   43.1320 O.2   191  VAL191     -0.2715
    137  CB        -1.9670   22.9080   43.5820 C.3   191  VAL191      0.0290
    138  CG1       -2.6720   23.6160   42.4450 C.3   191  VAL191      0.0023
    139  CG2       -2.8740   22.7420   44.7940 C.3   191  VAL191      0.0023
    140  N         -2.8640   20.9690   41.2040 N.am  192  THR192     -0.1951
    141  CA        -3.9410   20.2290   40.5500 C.3   192  THR192      0.1897
    142  C         -3.6590   18.7260   40.4870 C.2   192  THR192      0.2313
    143  O         -4.4810   17.9170   40.9160 O.2   192  THR192     -0.2863
    144  CB        -4.2240   20.7550   39.1140 C.3   192  THR192      0.1794
    145  OG1       -3.0760   20.5510   38.2790 O.3   192  THR192     -0.2208
    146  CG2       -4.5700   22.2310   39.1480 C.3   192  THR192      0.0378
    147  N         -1.4390   17.1080   42.1750 N.3   194  LYS194     -0.1245
    148  CA        -1.2320   16.6190   43.5290 C.3   194  LYS194      0.1561
    149  C         -2.5800   16.1850   44.0850 C.2   194  LYS194      0.2260
    150  O         -2.7060   15.1070   44.6600 O.2   194  LYS194     -0.2867
    151  CB        -0.6350   17.7240   44.4100 C.3   194  LYS194      0.0271
    152  CG        -0.3590   17.2970   45.8510 C.3   194  LYS194      0.0035
    153  CD         0.2490   18.4290   46.6610 C.3   194  LYS194      0.0206
    154  CE         0.5420   18.0140   48.0920 C.3   194  LYS194      0.1093
    155  NZ         1.2610   19.0980   48.8320 N.3   194  LYS194     -0.1314
    156  N         -2.1210   20.2110   52.0340 N.3   212  LEU212     -0.1231
    157  CA        -2.0270   21.3450   51.1190 C.3   212  LEU212      0.1693
    158  C         -1.6530   22.6320   51.8540 C.2   212  LEU212      0.2593
    159  O         -1.4890   22.6430   53.0770 O.2   212  LEU212     -0.2718
    160  CB        -3.3610   21.5480   50.3980 C.3   212  LEU212      0.0284
    161  CG        -3.8490   20.3610   49.5700 C.3   212  LEU212      0.0019
    162  CD1       -5.2740   20.6090   49.0900 C.3   212  LEU212      0.0001
    163  CD2       -2.9000   20.1480   48.3960 C.3   212  LEU212      0.0001
    164  N         -1.5180   23.7170   51.0970 N.am  213  GLY213     -0.1942
    165  CA        -1.1740   24.9950   51.6890 C.3   213  GLY213      0.2014
    166  C         -2.3230   25.9750   51.5690 C.2   213  GLY213      0.2638
    167  O         -3.4060   25.7380   52.1020 O.2   213  GLY213     -0.2714
    168  N         -2.0860   27.0740   50.8600 N.am  214  ASN214     -0.1972
    169  CA        -3.0960   28.1090   50.6550 C.3   214  ASN214      0.1688
    170  C         -4.1720   27.6540   49.6720 C.2   214  ASN214      0.2292
    171  O         -3.8980   27.4410   48.4900 O.2   214  ASN214     -0.2864
    172  CB        -2.4150   29.3890   50.1540 C.3   214  ASN214      0.1181
    173  CG        -3.3970   30.4200   49.6400 C.2   214  ASN214      0.2629
    174  OD1       -4.5000   30.5690   50.1680 O.2   214  ASN214     -0.2716
    175  ND2       -2.9900   31.1580   48.6130 N.am  214  ASN214     -0.0877
    176  N         -5.8310   30.7530   46.9600 N.3   217  ALA217     -0.1245
    177  CA        -5.1600   31.2780   45.7790 C.3   217  ALA217      0.1562
    178  C         -6.0890   31.0020   44.6030 C.2   217  ALA217      0.2260
    179  O         -6.6580   29.9140   44.5030 O.2   217  ALA217     -0.2867
    180  CB        -3.8280   30.5770   45.5720 C.3   217  ALA217      0.0290
    181  N         -6.6800   30.7510   40.4570 N.3   219  ARG219     -0.1245
    182  CA        -5.9740   30.5280   39.2020 C.3   219  ARG219      0.1563
    183  C         -6.8800   30.3060   37.9990 C.2   219  ARG219      0.2260
    184  O         -8.0420   29.9260   38.1270 O.2   219  ARG219     -0.2867
    185  CB        -5.0290   29.3270   39.3400 C.3   219  ARG219      0.0307
    186  CG        -3.8750   29.5330   40.3140 C.3   219  ARG219      0.0489
    187  CD        -2.8790   30.5660   39.7890 C.3   219  ARG219      0.2205
    188  NE        -1.7400   30.7380   40.6870 N.pl3 219  ARG219     -0.0865
    189  CZ        -1.7800   31.4190   41.8290 C.cat 219  ARG219      0.5346
    190  NH1       -0.6920   31.5160   42.5830 N.pl3 219  ARG219      0.1354
    191  NH2       -2.9010   32.0210   42.2120 N.pl3 219  ARG219      0.1354
    192  N         -7.0980   28.0070   35.0630 N.3   221  TRP221     -0.1241
    193  CA        -6.6220   26.6920   34.6250 C.3   221  TRP221      0.1605
    194  C         -7.1340   26.1810   33.2780 C.2   221  TRP221      0.2264
    195  O         -8.3380   26.0340   33.0820 O.2   221  TRP221     -0.2867
    196  CB        -6.9660   25.6360   35.6820 C.3   221  TRP221      0.0550
    197  CG        -6.1450   25.6790   36.9400 C.ar  221  TRP221      0.0003
    198  CD1       -4.7930   25.4950   37.0510 C.ar  221  TRP221      0.0946
    199  CD2       -6.6320   25.8780   38.2730 C.ar  221  TRP221      0.0152
    200  NE1       -4.4110   25.5630   38.3740 N.ar  221  TRP221     -0.2442
    201  CE2       -5.5190   25.7990   39.1430 C.ar  221  TRP221      0.0810
    202  CE3       -7.9010   26.1150   38.8170 C.ar  221  TRP221      0.0012
    203  CZ2       -5.6390   25.9520   40.5270 C.ar  221  TRP221      0.0191
    204  CZ3       -8.0180   26.2650   40.1960 C.ar  221  TRP221      0.0001
    205  CH2       -6.8920   26.1830   41.0330 C.ar  221  TRP221      0.0015
    206  N         -8.2030   27.1850   44.7120 N.3   253  VAL253     -0.1245
    207  CA        -7.7740   25.8180   44.9520 C.3   253  VAL253      0.1561
    208  C         -8.9010   25.0690   45.6630 C.2   253  VAL253      0.2260
    209  O         -9.0660   23.8610   45.4830 O.2   253  VAL253     -0.2867
    210  CB        -6.5050   25.7740   45.8210 C.3   253  VAL253      0.0252
    211  CG1       -6.1070   24.3310   46.0850 C.3   253  VAL253      0.0019
    212  CG2       -5.3790   26.5160   45.1250 C.3   253  VAL253      0.0019
    213  N          3.7470   24.2720   52.8590 N.3   278  TYR278     -0.1227
    214  CA         3.3590   24.4020   51.4610 C.3   278  TYR278      0.1736
    215  C          2.9620   25.8150   51.0740 C.2   278  TYR278      0.2595
    216  O          2.4850   26.0530   49.9660 O.2   278  TYR278     -0.2718
    217  CB         2.2340   23.4190   51.1340 C.3   278  TYR278      0.0548
    218  CG         2.6840   21.9830   51.2310 C.ar  278  TYR278     -0.0200
    219  CD1        1.9700   21.0540   51.9820 C.ar  278  TYR278     -0.0009
    220  CD2        3.8670   21.5650   50.6200 C.ar  278  TYR278     -0.0009
    221  CE1        2.4290   19.7460   52.1350 C.ar  278  TYR278      0.0417
    222  CE2        4.3320   20.2580   50.7650 C.ar  278  TYR278      0.0417
    223  CZ         3.6100   19.3570   51.5260 C.ar  278  TYR278      0.1957
    224  OH         4.0830   18.0770   51.6960 O.3   278  TYR278     -0.2866
    225  N          3.1630   26.7520   51.9940 N.am  279  PHE279     -0.1962
    226  CA         2.8600   28.1520   51.7380 C.3   279  PHE279      0.1771
    227  C          4.1340   28.7930   51.1880 C.2   279  PHE279      0.2619
    228  O          5.2260   28.5140   51.6740 O.2   279  PHE279     -0.2715
    229  CB         2.4450   28.8490   53.0340 C.3   279  PHE279      0.0574
    230  CG         1.0560   28.5040   53.4950 C.ar  279  PHE279     -0.0200
    231  CD1       -0.0340   29.2700   53.0980 C.ar  279  PHE279     -0.0042
    232  CD2        0.8350   27.4090   54.3250 C.ar  279  PHE279     -0.0042
    233  CE1       -1.3280   28.9530   53.5230 C.ar  279  PHE279     -0.0003
    234  CE2       -0.4540   27.0830   54.7540 C.ar  279  PHE279     -0.0003
    235  CZ        -1.5350   27.8560   54.3520 C.ar  279  PHE279     -0.0000
    236  N          3.9980   29.6390   50.1720 N.am  280  ARG280     -0.1977
    237  CA         5.1560   30.3030   49.5820 C.3   280  ARG280      0.1597
    238  C          5.4850   31.6020   50.3310 C.2   280  ARG280      0.2287
    239  O          4.5870   32.2940   50.8160 O.2   280  ARG280     -0.2864
    240  CB         4.9050   30.6130   48.0920 C.3   280  ARG280      0.0334
    241  CG         4.9150   29.3970   47.1440 C.3   280  ARG280      0.0492
    242  CD         3.6180   28.5860   47.2040 C.3   280  ARG280      0.2205
    243  NE         3.6780   27.3370   46.4330 N.pl3 280  ARG280     -0.0865
    244  CZ         3.5340   27.2390   45.1100 C.cat 280  ARG280      0.5346
    245  NH1        3.6090   26.0490   44.5260 N.pl3 280  ARG280      0.1354
    246  NH2        3.3110   28.3190   44.3690 N.pl3 280  ARG280      0.1354
    247  N          3.1510   35.0950   47.9890 N.3   283  GLU283     -0.1245
    248  CA         2.0950   34.4510   47.2170 C.3   283  GLU283      0.1567
    249  C          1.5530   35.2590   46.0420 C.2   283  GLU283      0.2260
    250  O          1.6710   36.4870   45.9930 O.2   283  GLU283     -0.2867
    251  CB         0.9430   34.0790   48.1650 C.3   283  GLU283      0.0388
    252  CG        -0.2680   33.3830   47.5270 C.3   283  GLU283      0.1160
    253  CD         0.0620   32.0160   46.9380 C.2   283  GLU283      0.3649
    254  OE1        0.6780   31.9660   45.8510 O.co2 283  GLU283     -0.2457
    255  OE2       -0.2910   30.9930   47.5650 O.co2 283  GLU283     -0.2457
@<TRIPOS>BOND
     1    63    62    1
     2    64    62    1
     3    62    61    1
     4    61    58    1
     5    57    58    1
     6    58    59    1
     7    93    91   ar
     8    93    92   ar
     9    91    89   ar
    10    92    90   ar
    11    89    90   ar
    12    89    88    1
    13    59    65   am
    14    59    60    2
    15    88    85    1
    16    65    66    1
    17    24    25    1
    18    97    96    2
    19    71    73   ar
    20    71    70   ar
    21    73    75   ar
    22    68    67    2
    23    25    26    1
    24    25    28    1
    25    85    86    1
    26    85    84    1
    27    66    69    1
    28    66    67    1
    29    69    70    1
    30    96    95    1
    31    70    72   ar
    32    67    76   am
    33    75    74   ar
    34    86    94   am
    35    86    87    2
    36    26    27    2
    37    26    30   am
    38    94    95    1
    39    79    78    2
    40    84    78   am
    41   195   194    2
    42    30    31    1
    43   194   193    1
    44    28    29    1
    45    78    77    1
    46    95    98    1
    47    72    74   ar
    48    76    77    1
    49    31    34    1
    50    31    32    1
    51   103   104    1
    52    34    35    1
    53    77    80    1
    54   193   192    1
    55   193   196    1
    56    56    55    1
    57    98    99    1
    58   104   107    1
    59   104   105    1
    60    32    36   am
    61    32    33    2
    62     5     6    1
    63     5     2    1
    64    99   100    1
    65   107   108    1
    66   112   111    1
    67   196   197    1
    68   101   100   ar
    69   109   110    1
    70   109   108    1
    71    80    81    1
    72    36    37    1
    73    55    53   ar
    74    55    54   ar
    75   105   106    2
    76   111   110    2
    77   111   113    1
    78    53    51   ar
    79   100   102   ar
    80     1     2    1
    81     2     3    1
    82    82    81    2
    83    81    83   am
    84    54    52   ar
    85   197   198   ar
    86   197   199   ar
    87    38    37    1
    88    38    39    2
    89    37    40    1
    90    48    47    2
    91   198   200   ar
    92    51    50   ar
    93    40    41    1
    94     3     4    2
    95     3     7   am
    96    52    50   ar
    97   183   184    2
    98   183   182    1
    99   130   132   ar
   100   130   128   ar
   101    50    49    1
   102   132   131   ar
   103    47    46    1
   104   199   202   ar
   105   199   201   ar
   106   145   144    1
   107   200   201   ar
   108   128   127   ar
   109   131   129   ar
   110    41    42    1
   111   202   204   ar
   112     7     8    1
   113    43    42   ar
   114    46    49    1
   115    46    45    1
   116   144   146    1
   117   144   141    1
   118   127   129   ar
   119   127   126    1
   120   201   203   ar
   121   182   185    1
   122   182   181    1
   123   185   186    1
   124    42    44   ar
   125   126   123    1
   126   187   186    1
   127   187   188    1
   128     8     9    1
   129     8    11    1
   130   204   205   ar
   131   142   141    1
   132   142   143    2
   133   203   205   ar
   134   141   140    1
   135    23    21    1
   136   188   189    2
   137     9    10    2
   138     9    17   am
   139    11    12    1
   140   140   135   am
   141   123   122    1
   142   123   124    1
   143    17    18    1
   144   122   116   am
   145   114   115    1
   146   189   191    1
   147   189   190    1
   148   124   125    2
   149   124   133   am
   150    18    21    1
   151    18    19    1
   152    21    22    1
   153    14    12   ar
   154    14    16   ar
   155    12    13   ar
   156   147   148    1
   157   133   134    1
   158   138   137    1
   159   135   134    1
   160   135   136    2
   161   116   115    1
   162   116   117    2
   163   120   119    2
   164   118   115    1
   165   118   119    1
   166   134   137    1
   167    16    15   ar
   168   119   121   am
   169    13    15   ar
   170    19    20    2
   171   148   149    1
   172   148   151    1
   173   137   139    1
   174   149   150    2
   175   246   244    1
   176   151   152    1
   177   179   178    2
   178   245   244    1
   179   178   177    1
   180   206   207    1
   181   207   208    1
   182   207   210    1
   183   244   243    2
   184   212   210    1
   185   209   208    2
   186   180   177    1
   187   177   176    1
   188   210   211    1
   189   254   253   ar
   190   152   153    1
   191   250   249    2
   192   249   248    1
   193   243   242    1
   194   153   154    1
   195   253   252    1
   196   253   255   ar
   197   241   242    1
   198   241   240    1
   199   248   247    1
   200   248   251    1
   201   252   251    1
   202   240   237    1
   203   154   155    1
   204   163   161    1
   205   171   170    2
   206   175   173   am
   207   162   161    1
   208   161   160    1
   209   237   236    1
   210   237   238    1
   211   173   172    1
   212   173   174    2
   213   170   169    1
   214   216   215    2
   215   172   169    1
   216   236   227   am
   217   238   239    2
   218   160   157    1
   219   220   222   ar
   220   220   218   ar
   221   169   168    1
   222   222   223   ar
   223   168   166   am
   224   215   214    1
   225   215   225   am
   226   164   165    1
   227   164   158   am
   228   157   158    1
   229   157   156    1
   230   217   218    1
   231   217   214    1
   232   227   228    2
   233   227   226    1
   234   218   219   ar
   235   214   213    1
   236   223   224    1
   237   223   221   ar
   238   166   165    1
   239   166   167    2
   240   226   225    1
   241   226   229    1
   242   158   159    2
   243   219   221   ar
   244   229   230    1
   245   231   230   ar
   246   231   233   ar
   247   230   232   ar
   248   233   235   ar
   249   232   234   ar
   250   235   234   ar
