@<TRIPOS>MOLECULE
tmp/1n7hB01.pdb
 214 206 0 0 0
SMALL
GASTEIGER

@<TRIPOS>ATOM
      1  N         76.6330   36.8450   27.0960 N.3    84  SER84      -0.1202
      2  CA        77.7120   36.8240   26.1070 C.3    84  SER84       0.2020
      3  C         78.4960   35.5560   25.8400 C.2    84  SER84       0.2619
      4  O         79.4240   35.5790   25.0250 O.2    84  SER84      -0.2717
      5  CB        78.7250   37.9270   26.4450 C.3    84  SER84       0.2103
      6  OG        79.4780   37.5720   27.5920 O.3    84  SER84      -0.2182
      7  N         78.1400   34.4590   26.4920 N.am   85  HIS85      -0.1961
      8  CA        78.8950   33.2330   26.2960 C.3    85  HIS85       0.1787
      9  C         78.2650   32.3150   25.2500 C.2    85  HIS85       0.2620
     10  O         77.0860   31.9620   25.3300 O.2    85  HIS85      -0.2715
     11  CB        79.0660   32.5170   27.6360 C.3    85  HIS85       0.0785
     12  CG        80.2040   31.5480   27.6510 C.ar   85  HIS85       0.0821
     13  ND1       80.1410   30.3150   27.0360 N.ar   85  HIS85      -0.2267
     14  CD2       81.4590   31.6580   28.1520 C.ar   85  HIS85       0.1154
     15  CE1       81.3090   29.7070   27.1580 C.ar   85  HIS85       0.1986
     16  NE2       82.1260   30.5000   27.8280 N.ar   85  HIS85      -0.2212
     17  N         79.0710   31.9370   24.2630 N.am   86  VAL86      -0.1977
     18  CA        78.6090   31.0930   23.1660 C.3    86  VAL86       0.1596
     19  C         78.1580   29.7080   23.6060 C.2    86  VAL86       0.2287
     20  O         77.0790   29.2560   23.2230 O.2    86  VAL86      -0.2864
     21  CB        79.7110   30.9600   22.0790 C.3    86  VAL86       0.0276
     22  CG1       79.3150   29.9180   21.0290 C.3    86  VAL86       0.0022
     23  CG2       79.9380   32.3190   21.4180 C.3    86  VAL86       0.0022
     24  N         81.5670   36.9520   16.1440 N.3   131  GLU131     -0.1245
     25  CA        80.8790   35.6720   16.2080 C.3   131  GLU131      0.1567
     26  C         79.7930   35.6420   15.1240 C.2   131  GLU131      0.2260
     27  O         79.3720   34.5690   14.6670 O.2   131  GLU131     -0.2867
     28  CB        80.2660   35.5050   17.6000 C.3   131  GLU131      0.0388
     29  CG        80.1280   34.0850   18.0830 C.3   131  GLU131      0.1160
     30  CD        81.4460   33.3180   18.1450 C.2   131  GLU131      0.3649
     31  OE1       82.5290   33.9170   18.3330 O.co2 131  GLU131     -0.2457
     32  OE2       81.3860   32.0880   18.0350 O.co2 131  GLU131     -0.2457
     33  N         73.6500   32.4830   20.2500 N.3   152  TYR152     -0.1241
     34  CA        74.2130   33.7890   20.5940 C.3   152  TYR152      0.1605
     35  C         74.5800   34.5580   19.3290 C.2   152  TYR152      0.2264
     36  O         74.2290   35.7330   19.1730 O.2   152  TYR152     -0.2867
     37  CB        75.4750   33.6200   21.4410 C.3   152  TYR152      0.0534
     38  CG        76.3240   34.8760   21.5310 C.ar  152  TYR152     -0.0201
     39  CD1       76.0050   35.9030   22.4200 C.ar  152  TYR152     -0.0009
     40  CD2       77.4480   35.0350   20.7160 C.ar  152  TYR152     -0.0009
     41  CE1       76.7890   37.0610   22.5030 C.ar  152  TYR152      0.0417
     42  CE2       78.2380   36.1880   20.7850 C.ar  152  TYR152      0.0417
     43  CZ        77.9010   37.1940   21.6800 C.ar  152  TYR152      0.1957
     44  OH        78.6640   38.3340   21.7370 O.3   152  TYR152     -0.2866
     45  N         87.2270   39.1000   19.2930 N.3   181  ASN181     -0.1240
     46  CA        87.5240   38.7490   20.6790 C.3   181  ASN181      0.1653
     47  C         88.4690   39.7080   21.3920 C.2   181  ASN181      0.2266
     48  O         89.5240   40.0660   20.8680 O.2   181  ASN181     -0.2867
     49  CB        88.1160   37.3340   20.7620 C.3   181  ASN181      0.1155
     50  CG        87.1470   36.2530   20.2970 C.2   181  ASN181      0.2627
     51  OD1       86.6570   36.2740   19.1630 O.2   181  ASN181     -0.2716
     52  ND2       86.8820   35.2880   21.1730 N.am  181  ASN181     -0.0877
     53  N         90.1020   40.3880   25.3890 N.3   183  GLU183     -0.1245
     54  CA        90.2910   39.8620   26.7310 C.3   183  GLU183      0.1567
     55  C         90.9810   40.8630   27.6540 C.2   183  GLU183      0.2260
     56  O         91.3430   41.9650   27.2380 O.2   183  GLU183     -0.2867
     57  CB        91.1410   38.5930   26.6290 C.3   183  GLU183      0.0388
     58  CG        90.9840   37.8340   25.2960 C.3   183  GLU183      0.1160
     59  CD        89.6130   37.1930   25.1140 C.2   183  GLU183      0.3649
     60  OE1       88.9060   37.5620   24.1510 O.co2 183  GLU183     -0.2457
     61  OE2       89.2400   36.3180   25.9310 O.co2 183  GLU183     -0.2457
     62  N         88.3630   39.5080   32.2150 N.3   187  ARG187     -0.1245
     63  CA        87.5780   38.6280   31.3510 C.3   187  ARG187      0.1563
     64  C         86.8730   37.5490   32.1850 C.2   187  ARG187      0.2260
     65  O         87.4280   37.0700   33.1690 O.2   187  ARG187     -0.2867
     66  CB        88.5240   37.9820   30.3270 C.3   187  ARG187      0.0307
     67  CG        87.9000   37.0010   29.3450 C.3   187  ARG187      0.0489
     68  CD        86.8420   37.6570   28.4740 C.3   187  ARG187      0.2205
     69  NE        86.8810   37.1580   27.1010 N.pl3 187  ARG187     -0.0865
     70  CZ        85.8430   37.1610   26.2710 C.cat 187  ARG187      0.5346
     71  NH1       84.6650   37.6230   26.6740 N.pl3 187  ARG187      0.1354
     72  NH2       85.9950   36.7360   25.0200 N.pl3 187  ARG187      0.1354
     73  N         84.9800   31.8740   32.3520 N.3   190  ASN190     -0.1225
     74  CA        84.4390   30.7900   31.5430 C.3   190  ASN190      0.1785
     75  C         84.8850   30.9090   30.0860 C.2   190  ASN190      0.2597
     76  O         84.6330   30.0100   29.2890 O.2   190  ASN190     -0.2718
     77  CB        82.9040   30.7750   31.6410 C.3   190  ASN190      0.1169
     78  CG        82.2920   29.4720   31.1560 C.2   190  ASN190      0.2627
     79  OD1       82.8420   28.3920   31.3810 O.2   190  ASN190     -0.2716
     80  ND2       81.1290   29.5650   30.5090 N.am  190  ASN190     -0.0877
     81  N         85.5190   32.0250   29.7260 N.am  191  PHE191     -0.1962
     82  CA        86.0190   32.1690   28.3560 C.3   191  PHE191      0.1771
     83  C         87.3940   31.4980   28.3360 C.2   191  PHE191      0.2619
     84  O         88.0860   31.4640   29.3560 O.2   191  PHE191     -0.2715
     85  CB        86.0640   33.6410   27.9480 C.3   191  PHE191      0.0574
     86  CG        84.6940   34.2630   27.8600 C.ar  191  PHE191     -0.0200
     87  CD1       84.1190   34.8790   28.9640 C.ar  191  PHE191     -0.0042
     88  CD2       83.9500   34.1580   26.6900 C.ar  191  PHE191     -0.0042
     89  CE1       82.8110   35.3800   28.9020 C.ar  191  PHE191     -0.0003
     90  CE2       82.6420   34.6520   26.6140 C.ar  191  PHE191     -0.0003
     91  CZ        82.0740   35.2630   27.7250 C.ar  191  PHE191     -0.0000
     92  N         87.7940   30.9650   27.1850 N.am  192  VAL192     -0.1963
     93  CA        89.0410   30.1870   27.1270 C.3   192  VAL192      0.1727
     94  C         90.3390   30.8470   27.5850 C.2   192  VAL192      0.2616
     95  O         91.1600   30.2050   28.2500 O.2   192  VAL192     -0.2715
     96  CB        89.2400   29.5610   25.7030 C.3   192  VAL192      0.0290
     97  CG1       89.8530   30.5630   24.7580 C.3   192  VAL192      0.0023
     98  CG2       90.1000   28.2900   25.8050 C.3   192  VAL192      0.0023
     99  N         90.5390   32.1140   27.2460 N.am  193  THR193     -0.1951
    100  CA        91.7660   32.7980   27.6320 C.3   193  THR193      0.1897
    101  C         91.9030   32.9320   29.1490 C.2   193  THR193      0.2313
    102  O         92.9320   32.5670   29.7240 O.2   193  THR193     -0.2863
    103  CB        91.8260   34.1920   27.0120 C.3   193  THR193      0.1794
    104  OG1       90.6910   34.9470   27.4460 O.3   193  THR193     -0.2208
    105  CG2       91.8040   34.0910   25.4790 C.3   193  THR193      0.0378
    106  N         90.1690   31.2960   31.3750 N.3   195  LYS195     -0.1245
    107  CA        90.1240   29.9600   31.9690 C.3   195  LYS195      0.1561
    108  C         91.5590   29.4300   32.0330 C.2   195  LYS195      0.2260
    109  O         91.9780   28.8290   33.0310 O.2   195  LYS195     -0.2867
    110  CB        89.2610   29.0240   31.1190 C.3   195  LYS195      0.0271
    111  CG        89.2670   27.5720   31.5980 C.3   195  LYS195      0.0035
    112  CD        88.3020   26.6940   30.8030 C.3   195  LYS195      0.0206
    113  CE        88.3720   25.2410   31.2730 C.3   195  LYS195      0.1093
    114  NZ        87.3620   24.3780   30.6030 N.3   195  LYS195     -0.1314
    115  N         90.2630   21.2350   28.7310 N.3   213  LEU213     -0.1231
    116  CA        89.8450   22.0930   27.6280 C.3   213  LEU213      0.1693
    117  C         89.1990   21.2910   26.5050 C.2   213  LEU213      0.2593
    118  O         89.1370   20.0590   26.5590 O.2   213  LEU213     -0.2718
    119  CB        91.0560   22.8650   27.0890 C.3   213  LEU213      0.0284
    120  CG        91.7060   23.8600   28.0540 C.3   213  LEU213      0.0019
    121  CD1       93.0760   24.2810   27.5280 C.3   213  LEU213      0.0001
    122  CD2       90.7910   25.0770   28.2280 C.3   213  LEU213      0.0001
    123  N         88.7180   21.9950   25.4860 N.am  214  GLY214     -0.1942
    124  CA        88.0790   21.3380   24.3650 C.3   214  GLY214      0.2014
    125  C         88.9060   21.3900   23.0940 C.2   214  GLY214      0.2638
    126  O         89.9540   20.7410   22.9880 O.2   214  GLY214     -0.2714
    127  N         88.4360   22.1770   22.1310 N.am  215  ASN215     -0.1972
    128  CA        89.0990   22.3230   20.8380 C.3   215  ASN215      0.1688
    129  C         90.2820   23.2910   20.8760 C.2   215  ASN215      0.2292
    130  O         90.1040   24.5040   20.9520 O.2   215  ASN215     -0.2864
    131  CB        88.0580   22.7690   19.8010 C.3   215  ASN215      0.1181
    132  CG        88.6640   23.0620   18.4450 C.2   215  ASN215      0.2629
    133  OD1       89.7100   22.5260   18.0920 O.2   215  ASN215     -0.2716
    134  ND2       87.9940   23.9080   17.6670 N.am  215  ASN215     -0.0877
    135  N         91.0180   25.8670   17.4570 N.3   218  ALA218     -0.1245
    136  CA        90.2220   27.0450   17.1170 C.3   218  ALA218      0.1562
    137  C         91.1530   28.2490   17.0930 C.2   218  ALA218      0.2260
    138  O         92.0120   28.3980   17.9690 O.2   218  ALA218     -0.2867
    139  CB        89.1090   27.2560   18.1480 C.3   218  ALA218      0.0290
    140  N         91.5900   32.4840   16.9210 N.3   220  ARG220     -0.1245
    141  CA        90.9470   33.7550   17.2030 C.3   220  ARG220      0.1563
    142  C         91.8780   34.9550   17.1080 C.2   220  ARG220      0.2260
    143  O         93.0940   34.8500   17.2690 O.2   220  ARG220     -0.2867
    144  CB        90.3410   33.7220   18.6160 C.3   220  ARG220      0.0307
    145  CG        89.2300   32.6890   18.8090 C.3   220  ARG220      0.0489
    146  CD        87.9330   33.1510   18.1490 C.3   220  ARG220      0.2205
    147  NE        86.8330   32.2120   18.3500 N.pl3 220  ARG220     -0.0865
    148  CZ        86.6740   31.0760   17.6750 C.cat 220  ARG220      0.5346
    149  NH1       85.6380   30.2890   17.9340 N.pl3 220  ARG220      0.1354
    150  NH2       87.5440   30.7320   16.7300 N.pl3 220  ARG220      0.1354
    151  N         92.6840   37.9870   19.0250 N.3   222  TRP222     -0.1241
    152  CA        92.5270   38.4440   20.4100 C.3   222  TRP222      0.1605
    153  C         93.1970   39.7850   20.6960 C.2   222  TRP222      0.2264
    154  O         94.4070   39.9310   20.5080 O.2   222  TRP222     -0.2867
    155  CB        93.1110   37.4050   21.3820 C.3   222  TRP222      0.0550
    156  CG        92.2800   36.1660   21.6160 C.ar  222  TRP222      0.0003
    157  CD1       91.0140   36.1060   22.1310 C.ar  222  TRP222      0.0946
    158  CD2       92.6960   34.8070   21.4200 C.ar  222  TRP222      0.0152
    159  NE1       90.6220   34.7950   22.2710 N.ar  222  TRP222     -0.2442
    160  CE2       91.6350   33.9780   21.8430 C.ar  222  TRP222      0.0810
    161  CE3       93.8670   34.2110   20.9280 C.ar  222  TRP222      0.0012
    162  CZ2       91.7080   32.5770   21.7930 C.ar  222  TRP222      0.0191
    163  CZ3       93.9410   32.8200   20.8800 C.ar  222  TRP222      0.0001
    164  CH2       92.8690   32.0200   21.3100 C.ar  222  TRP222      0.0015
    165  N         94.1310   28.3620   20.1750 N.3   254  VAL254     -0.1245
    166  CA        94.0670   28.1810   21.6140 C.3   254  VAL254      0.1561
    167  C         95.3790   27.4940   22.0020 C.2   254  VAL254      0.2260
    168  O         95.9470   27.7660   23.0560 O.2   254  VAL254     -0.2867
    169  CB        92.8620   27.2900   22.0030 C.3   254  VAL254      0.0252
    170  CG1       92.9220   26.9210   23.4800 C.3   254  VAL254      0.0019
    171  CG2       91.5590   28.0340   21.6990 C.3   254  VAL254      0.0019
    172  N         83.5680   20.1580   26.4830 N.3   279  TYR279     -0.1227
    173  CA        83.8460   21.5540   26.1540 C.3   279  TYR279      0.1736
    174  C         83.7900   21.8980   24.6770 C.2   279  TYR279      0.2595
    175  O         84.0190   23.0420   24.2930 O.2   279  TYR279     -0.2718
    176  CB        85.1900   21.9760   26.7450 C.3   279  TYR279      0.0548
    177  CG        85.1650   21.9520   28.2550 C.ar  279  TYR279     -0.0200
    178  CD1       85.9510   21.0510   28.9710 C.ar  279  TYR279     -0.0009
    179  CD2       84.2930   22.7780   28.9670 C.ar  279  TYR279     -0.0009
    180  CE1       85.8620   20.9660   30.3620 C.ar  279  TYR279      0.0417
    181  CE2       84.1960   22.7000   30.3550 C.ar  279  TYR279      0.0417
    182  CZ        84.9800   21.7910   31.0420 C.ar  279  TYR279      0.1957
    183  OH        84.8670   21.6810   32.4050 O.3   279  TYR279     -0.2866
    184  N         83.4920   20.9090   23.8450 N.am  280  PHE280     -0.1962
    185  CA        83.3580   21.1550   22.4160 C.3   280  PHE280      0.1771
    186  C         81.9540   21.7260   22.2060 C.2   280  PHE280      0.2619
    187  O         81.0380   21.4040   22.9630 O.2   280  PHE280     -0.2715
    188  CB        83.5280   19.8470   21.6460 C.3   280  PHE280      0.0574
    189  CG        84.9550   19.4150   21.5150 C.ar  280  PHE280     -0.0200
    190  CD1       85.6840   19.7220   20.3700 C.ar  280  PHE280     -0.0042
    191  CD2       85.5880   18.7440   22.5500 C.ar  280  PHE280     -0.0042
    192  CE1       87.0280   19.3650   20.2640 C.ar  280  PHE280     -0.0003
    193  CE2       86.9330   18.3840   22.4530 C.ar  280  PHE280     -0.0003
    194  CZ        87.6500   18.6950   21.3090 C.ar  280  PHE280     -0.0000
    195  N         81.7850   22.5880   21.2090 N.am  281  ARG281     -0.1977
    196  CA        80.4710   23.1710   20.9370 C.3   281  ARG281      0.1597
    197  C         79.7640   22.3660   19.8500 C.2   281  ARG281      0.2287
    198  O         80.4200   21.7530   19.0030 O.2   281  ARG281     -0.2864
    199  CB        80.5880   24.6340   20.4690 C.3   281  ARG281      0.0334
    200  CG        80.8250   25.6730   21.5770 C.3   281  ARG281      0.0492
    201  CD        82.2860   25.7430   21.9140 C.3   281  ARG281      0.2205
    202  NE        82.5960   26.5360   23.1060 N.pl3 281  ARG281     -0.0865
    203  CZ        82.7730   27.8540   23.1280 C.cat 281  ARG281      0.5346
    204  NH1       83.0740   28.4530   24.2760 N.pl3 281  ARG281      0.1354
    205  NH2       82.6490   28.5740   22.0210 N.pl3 281  ARG281      0.1354
    206  N         81.0290   24.5080   15.8130 N.3   284  GLU284     -0.1245
    207  CA        82.2030   25.3320   16.0900 C.3   284  GLU284      0.1567
    208  C         82.4900   26.4510   15.0820 C.2   284  GLU284      0.2260
    209  O         82.0500   26.4080   13.9370 O.2   284  GLU284     -0.2867
    210  CB        83.4290   24.4130   16.2010 C.3   284  GLU284      0.0388
    211  CG        84.7670   25.0980   16.4970 C.3   284  GLU284      0.1160
    212  CD        84.8490   25.7120   17.8850 C.2   284  GLU284      0.3649
    213  OE1       84.2700   26.8040   18.0950 O.co2 284  GLU284     -0.2457
    214  OE2       85.4980   25.1040   18.7690 O.co2 284  GLU284     -0.2457
@<TRIPOS>BOND
     1   209   208    2
     2    27    26    2
     3   208   207    1
     4    26    25    1
     5   206   207    1
     6   207   210    1
     7    24    25    1
     8   210   211    1
     9    25    28    1
    10   211   212    1
    11   150   148    1
    12   140   141    1
    13   137   136    1
    14   137   138    2
    15   142   141    1
    16   142   143    2
    17   136   135    1
    18   136   139    1
    19   141   144    1
    20    28    29    1
    21   134   132   am
    22   148   149    1
    23   148   147    2
    24   212   213   ar
    25   212   214   ar
    26    32    30   ar
    27    29    30    1
    28   133   132    2
    29    30    31   ar
    30   146   147    1
    31   146   145    1
    32   132   131    1
    33   144   145    1
    34   198   197    2
    35   151   152    1
    36    51    50    2
    37    36    35    2
    38    45    46    1
    39    35    34    1
    40   131   128    1
    41   197   196    1
    42   165   166    1
    43    33    34    1
    44   192   190   ar
    45   192   194   ar
    46    50    49    1
    47    50    52   am
    48   190   189   ar
    49   152   153    1
    50   152   155    1
    51   199   196    1
    52   199   200    1
    53   154   153    2
    54    34    37    1
    55    46    49    1
    56    46    47    1
    57    40    42   ar
    58    40    38   ar
    59    42    43   ar
    60   128   129    1
    61   128   127    1
    62    48    47    2
    63   129   130    2
    64   163   161   ar
    65   163   164   ar
    66   161   158   ar
    67   196   195    1
    68    22    21    1
    69   195   186   am
    70   194   193   ar
    71   164   162   ar
    72   155   156    1
    73    23    21    1
    74   158   156   ar
    75   158   160   ar
    76    37    38    1
    77   189   188    1
    78   189   191   ar
    79    38    39   ar
    80   200   201    1
    81   166   167    1
    82   166   169    1
    83   156   157   ar
    84   188   185    1
    85    43    44    1
    86    43    41   ar
    87   171   169    1
    88   162   160   ar
    89   160   159   ar
    90   201   202    1
    91   167   168    2
    92   169   170    1
    93   205   203    1
    94    21    18    1
    95   127   125   am
    96   157   159   ar
    97   186   185    1
    98   186   187    2
    99   185   184    1
   100    39    41   ar
   101   193   191   ar
   102   126   125    2
   103   125   124    1
   104   202   203    2
   105   203   204    1
   106    18    19    1
   107    18    17    1
   108    20    19    2
   109   184   174   am
   110    60    59   ar
   111    17     9   am
   112   175   174    2
   113   124   123    1
   114   174   173    1
   115    97    96    1
   116    72    70    1
   117     4     3    2
   118    59    58    1
   119    59    61   ar
   120     9    10    2
   121     9     8    1
   122    58    57    1
   123    53    54    1
   124   105   103    1
   125   123   117   am
   126    96    98    1
   127    96    93    1
   128     3     2    1
   129     3     7   am
   130     2     5    1
   131     2     1    1
   132   173   172    1
   133   173   176    1
   134    70    71    1
   135    70    69    2
   136     8     7    1
   137     8    11    1
   138     5     6    1
   139   117   118    2
   140   117   116    1
   141    90    88   ar
   142    90    91   ar
   143    57    54    1
   144    88    86   ar
   145    54    55    1
   146   176   177    1
   147   103   104    1
   148   103   100    1
   149    13    15   ar
   150    13    12   ar
   151   119   116    1
   152   119   120    1
   153    69    68    1
   154    93    92    1
   155    93    94    1
   156    15    16   ar
   157    92    83   am
   158    56    55    2
   159    99    94   am
   160    99   100    1
   161   121   120    1
   162    94    95    2
   163   116   115    1
   164   100   101    1
   165    11    12    1
   166    12    14   ar
   167    91    89   ar
   168    16    14   ar
   169    86    85    1
   170    86    87   ar
   171    85    82    1
   172   120   122    1
   173   177   179   ar
   174   177   178   ar
   175    83    82    1
   176    83    84    2
   177    82    81    1
   178    68    67    1
   179    89    87   ar
   180   179   181   ar
   181   178   180   ar
   182   101   102    2
   183    76    75    2
   184    67    66    1
   185    81    75   am
   186    75    74    1
   187    66    63    1
   188   181   182   ar
   189   180   182   ar
   190    80    78   am
   191   114   113    1
   192   112   113    1
   193   112   111    1
   194   182   183    1
   195   110   111    1
   196   110   107    1
   197    78    79    2
   198    78    77    1
   199    63    64    1
   200    63    62    1
   201   106   107    1
   202    74    77    1
   203    74    73    1
   204   107   108    1
   205   108   109    2
   206    64    65    2
