@<TRIPOS>MOLECULE
tmp/1n7iA01.pdb
 130 121 0 0 0
SMALL
GASTEIGER

@<TRIPOS>ATOM
      1  N         38.1840   48.7750   16.3470 N.3    14  TYR14      -0.1241
      2  CA        36.7970   48.4810   16.6460 C.3    14  TYR14       0.1605
      3  C         36.0600   48.3390   15.3210 C.2    14  TYR14       0.2264
      4  O         35.5250   47.2710   15.0080 O.2    14  TYR14      -0.2867
      5  CB        36.1570   49.6100   17.4380 C.3    14  TYR14       0.0534
      6  CG        34.6840   49.3910   17.6720 C.ar   14  TYR14      -0.0201
      7  CD1       34.2350   48.5290   18.6800 C.ar   14  TYR14      -0.0009
      8  CD2       33.7280   50.0280   16.8770 C.ar   14  TYR14      -0.0009
      9  CE1       32.8730   48.3150   18.8910 C.ar   14  TYR14       0.0417
     10  CE2       32.3680   49.8180   17.0800 C.ar   14  TYR14       0.0417
     11  CZ        31.9490   48.9670   18.0880 C.ar   14  TYR14       0.1957
     12  OH        30.6100   48.8000   18.3140 O.3    14  TYR14      -0.2866
     13  N         33.9530   44.8940   13.4990 N.3    18  ASN18      -0.1225
     14  CA        32.4990   44.8280   13.3790 C.3    18  ASN18       0.1785
     15  C         31.8760   45.4090   12.1200 C.2    18  ASN18       0.2597
     16  O         30.7070   45.1400   11.8370 O.2    18  ASN18      -0.2718
     17  CB        31.8800   45.5090   14.5910 C.3    18  ASN18       0.1169
     18  CG        32.4290   44.9800   15.8700 C.2    18  ASN18       0.2627
     19  OD1       32.1300   43.8670   16.2650 O.2    18  ASN18      -0.2716
     20  ND2       33.2600   45.7690   16.5230 N.am   18  ASN18      -0.0877
     21  N         32.6320   46.2030   11.3710 N.am   19  TYR19      -0.1976
     22  CA        32.0730   46.8090   10.1740 C.3    19  TYR19       0.1639
     23  C         32.8790   46.5950    8.9180 C.2    19  TYR19       0.2290
     24  O         32.7930   47.3960    7.9800 O.2    19  TYR19      -0.2864
     25  CB        31.8450   48.2950   10.4090 C.3    19  TYR19       0.0560
     26  CG        30.9530   48.5200   11.5890 C.ar   19  TYR19      -0.0198
     27  CD1       31.4640   48.5300   12.8880 C.ar   19  TYR19      -0.0009
     28  CD2       29.5820   48.6490   11.4210 C.ar   19  TYR19      -0.0009
     29  CE1       30.6190   48.6660   13.9930 C.ar   19  TYR19       0.0417
     30  CE2       28.7340   48.7790   12.5110 C.ar   19  TYR19       0.0417
     31  CZ        29.2540   48.7910   13.7910 C.ar   19  TYR19       0.1957
     32  OH        28.3970   48.9530   14.8550 O.3    19  TYR19      -0.2866
     33  N         31.3070   40.8350    8.7040 N.3    23  ARG23      -0.1245
     34  CA        30.1550   41.5660    9.2070 C.3    23  ARG23       0.1563
     35  C         29.8280   42.7990    8.4010 C.2    23  ARG23       0.2260
     36  O         28.6720   43.2200    8.3450 O.2    23  ARG23      -0.2867
     37  CB        30.3920   41.9820   10.6570 C.3    23  ARG23       0.0307
     38  CG        30.6110   40.8220   11.5800 C.3    23  ARG23       0.0489
     39  CD        30.6850   41.2570   13.0190 C.3    23  ARG23       0.2205
     40  NE        30.7970   40.0810   13.8740 N.pl3  23  ARG23      -0.0865
     41  CZ        30.9480   40.1190   15.1890 C.cat  23  ARG23       0.5346
     42  NH1       31.0060   41.2850   15.8270 N.pl3  23  ARG23       0.1354
     43  NH2       31.0400   38.9840   15.8620 N.pl3  23  ARG23       0.1354
     44  N         24.4220   40.7010    9.5220 N.3    32  VAL32      -0.1231
     45  CA        24.0700   41.6360   10.5840 C.3    32  VAL32       0.1692
     46  C         23.8200   43.0000    9.9800 C.2    32  VAL32       0.2592
     47  O         22.8880   43.6970   10.3800 O.2    32  VAL32      -0.2718
     48  CB        25.2070   41.8300   11.6240 C.3    32  VAL32       0.0266
     49  CG1       24.6040   42.1210   13.0000 C.3    32  VAL32       0.0020
     50  CG2       26.1170   40.6330   11.6470 C.3    32  VAL32       0.0020
     51  N         24.6700   43.3770    9.0260 N.am   33  GLY33      -0.1957
     52  CA        24.5460   44.6740    8.3880 C.3    33  GLY33       0.1869
     53  C         23.1700   44.9020    7.8050 C.2    33  GLY33       0.2309
     54  O         22.4380   45.8040    8.2360 O.2    33  GLY33      -0.2863
     55  N         20.3290   45.0150   10.5960 N.3    36  LYS36      -0.1245
     56  CA        20.2220   46.2540   11.3520 C.3    36  LYS36       0.1561
     57  C         19.7160   47.3720   10.4560 C.2    36  LYS36       0.2260
     58  O         18.7990   48.1100   10.8400 O.2    36  LYS36      -0.2867
     59  CB        21.5650   46.6530   11.9630 C.3    36  LYS36       0.0271
     60  CG        22.0770   45.7140   13.0440 C.3    36  LYS36       0.0035
     61  CD        23.4450   46.1590   13.5470 C.3    36  LYS36       0.0206
     62  CE        24.4880   45.9750   12.4680 C.3    36  LYS36       0.1093
     63  NZ        25.7390   46.6700   12.8120 N.3    36  LYS36      -0.1314
     64  N         24.5520   49.2880   20.4820 N.3   161  PHE161     -0.1241
     65  CA        25.6300   48.6300   21.1910 C.3   161  PHE161      0.1605
     66  C         26.2990   49.4980   22.2650 C.2   161  PHE161      0.2264
     67  O         27.5110   49.4230   22.4620 O.2   161  PHE161     -0.2867
     68  CB        26.6750   48.1450   20.1820 C.3   161  PHE161      0.0534
     69  CG        26.0980   47.3330   19.0570 C.ar  161  PHE161     -0.0203
     70  CD1       25.8500   47.9150   17.8210 C.ar  161  PHE161     -0.0042
     71  CD2       25.7980   45.9890   19.2370 C.ar  161  PHE161     -0.0042
     72  CE1       25.3110   47.1690   16.7710 C.ar  161  PHE161     -0.0003
     73  CE2       25.2570   45.2300   18.1960 C.ar  161  PHE161     -0.0003
     74  CZ        25.0120   45.8250   16.9560 C.ar  161  PHE161     -0.0000
     75  N         23.8850   44.0840   21.8870 N.3   195  ALA195     -0.1245
     76  CA        24.3780   42.7260   21.7900 C.3   195  ALA195      0.1562
     77  C         23.5550   41.8580   22.7200 C.2   195  ALA195      0.2260
     78  O         23.2180   42.2580   23.8340 O.2   195  ALA195     -0.2867
     79  CB        25.8310   42.6710   22.1770 C.3   195  ALA195      0.0290
     80  N         26.1100   38.7050   25.2160 N.3   198  GLU198     -0.1245
     81  CA        27.5500   38.8180   24.9400 C.3   198  GLU198      0.1567
     82  C         28.2080   39.2670   26.2510 C.2   198  GLU198      0.2260
     83  O         27.5540   39.9090   27.0810 O.2   198  GLU198     -0.2867
     84  CB        27.8300   39.8290   23.8010 C.3   198  GLU198      0.0388
     85  CG        28.0990   41.2650   24.2460 C.3   198  GLU198      0.1160
     86  CD        28.8200   42.1050   23.1920 C.2   198  GLU198      0.3649
     87  OE1       29.6810   41.5500   22.4720 O.co2 198  GLU198     -0.2457
     88  OE2       28.5390   43.3270   23.0900 O.co2 198  GLU198     -0.2457
     89  N         34.2370   42.0070   24.2150 N.3   201  TYR201     -0.1241
     90  CA        34.5420   42.2470   22.8050 C.3   201  TYR201      0.1605
     91  C         35.8120   43.0680   22.7120 C.2   201  TYR201      0.2264
     92  O         36.0020   44.0260   23.4570 O.2   201  TYR201     -0.2867
     93  CB        33.3830   42.9550   22.0930 C.3   201  TYR201      0.0534
     94  CG        33.2240   44.4050   22.4460 C.ar  201  TYR201     -0.0201
     95  CD1       34.0060   45.3810   21.8260 C.ar  201  TYR201     -0.0009
     96  CD2       32.3010   44.8080   23.4090 C.ar  201  TYR201     -0.0009
     97  CE1       33.8720   46.7210   22.1560 C.ar  201  TYR201      0.0417
     98  CE2       32.1640   46.1460   23.7490 C.ar  201  TYR201      0.0417
     99  CZ        32.9540   47.0970   23.1200 C.ar  201  TYR201      0.1957
    100  OH        32.8490   48.4160   23.4730 O.3   201  TYR201     -0.2866
    101  N         23.2820   35.5030   15.6220 N.3   237  MET237     -0.1245
    102  CA        24.5800   35.5050   14.9740 C.3   237  MET237      0.1570
    103  C         24.8760   34.2110   14.2450 C.2   237  MET237      0.2261
    104  O         24.8760   33.1450   14.8380 O.2   237  MET237     -0.2867
    105  CB        25.6710   35.8110   15.9960 C.3   237  MET237      0.0387
    106  CG        25.8960   37.3050   16.2070 C.3   237  MET237      0.0595
    107  SD        26.4340   38.1430   14.6950 S.3   237  MET237     -0.1393
    108  CE        25.8880   39.9110   15.0270 C.3   237  MET237      0.0692
    109  N         34.5690   38.9630   19.7200 N.3   246  ASP246     -0.1239
    110  CA        33.6020   39.0660   20.7940 C.3   246  ASP246      0.1674
    111  C         32.9370   37.7180   20.9060 C.2   246  ASP246      0.2266
    112  O         33.3280   36.7810   20.2160 O.2   246  ASP246     -0.2867
    113  CB        32.5620   40.1370   20.4820 C.3   246  ASP246      0.1410
    114  CG        31.8820   39.9170   19.1550 C.2   246  ASP246      0.3668
    115  OD1       31.2920   38.8400   18.9500 O.co2 246  ASP246     -0.2456
    116  OD2       31.9320   40.8270   18.3070 O.co2 246  ASP246     -0.2456
    117  N         29.2970   37.5240   21.0450 N.3   248  VAL248     -0.1245
    118  CA        27.8770   37.7940   20.8310 C.3   248  VAL248      0.1561
    119  C         27.1720   36.5250   20.3480 C.2   248  VAL248      0.2260
    120  O         27.7500   35.7270   19.6020 O.2   248  VAL248     -0.2867
    121  CB        27.6830   38.9020   19.7630 C.3   248  VAL248      0.0252
    122  CG1       26.2360   39.3480   19.7280 C.3   248  VAL248      0.0019
    123  CG2       28.5830   40.0690   20.0730 C.3   248  VAL248      0.0019
    124  N         21.6030   39.5630   18.1390 N.3   251  VAL251     -0.1245
    125  CA        21.4720   41.0100   18.2960 C.3   251  VAL251      0.1561
    126  C         20.0150   41.4680   18.3410 C.2   251  VAL251      0.2260
    127  O         19.1730   40.9880   17.5870 O.2   251  VAL251     -0.2867
    128  CB        22.1970   41.7600   17.1630 C.3   251  VAL251      0.0252
    129  CG1       22.0940   43.2570   17.3910 C.3   251  VAL251      0.0019
    130  CG2       23.6520   41.3360   17.0960 C.3   251  VAL251      0.0019
@<TRIPOS>BOND
     1    53    54    2
     2    53    52    1
     3    24    23    2
     4    36    35    2
     5    52    51    1
     6    35    34    1
     7    33    34    1
     8    23    22    1
     9    51    46   am
    10    34    37    1
    11    44    45    1
    12    46    47    2
    13    46    45    1
    14    22    25    1
    15    22    21    1
    16    25    26    1
    17    57    58    2
    18    57    56    1
    19    45    48    1
    20    55    56    1
    21    37    38    1
    22    56    59    1
    23    21    15   am
    24    28    26   ar
    25    28    30   ar
    26    38    39    1
    27    26    27   ar
    28    48    50    1
    29    48    49    1
    30    16    15    2
    31    59    60    1
    32    15    14    1
    33    62    63    1
    34    62    61    1
    35    30    31   ar
    36    27    29   ar
    37    39    40    1
    38    60    61    1
    39    14    13    1
    40    14    17    1
    41    31    29   ar
    42    31    32    1
    43    40    41    2
    44   103   104    2
    45   103   102    1
    46    17    18    1
    47   107   108    1
    48   107   106    1
    49   102   101    1
    50   102   105    1
    51     4     3    2
    52    41    42    1
    53    41    43    1
    54     3     2    1
    55    18    19    2
    56    18    20   am
    57   105   106    1
    58     1     2    1
    59     2     5    1
    60    72    74   ar
    61    72    70   ar
    62     8    10   ar
    63     8     6   ar
    64    74    73   ar
    65    10    11   ar
    66   130   128    1
    67   128   129    1
    68   128   125    1
    69     5     6    1
    70   127   126    2
    71     6     7   ar
    72    70    69   ar
    73    11    12    1
    74    11     9   ar
    75   124   125    1
    76    73    71   ar
    77   125   126    1
    78   116   114   ar
    79     7     9   ar
    80   115   114   ar
    81    69    71   ar
    82    69    68    1
    83   114   113    1
    84   120   119    2
    85   109   110    1
    86   122   121    1
    87   121   123    1
    88   121   118    1
    89    68    65    1
    90   112   111    2
    91   119   118    1
    92   113   110    1
    93    64    65    1
    94   110   111    1
    95   118   117    1
    96    65    66    1
    97    76    75    1
    98    76    79    1
    99    76    77    1
   100    95    97   ar
   101    95    94   ar
   102    93    94    1
   103    93    90    1
   104    97    99   ar
   105    66    67    2
   106    94    96   ar
   107    87    86   ar
   108    91    90    1
   109    91    92    2
   110    77    78    2
   111    90    89    1
   112    88    86   ar
   113    99   100    1
   114    99    98   ar
   115    86    85    1
   116    96    98   ar
   117    84    85    1
   118    84    81    1
   119    81    80    1
   120    81    82    1
   121    82    83    2
