@<TRIPOS>MOLECULE
tmp/1n7jA01.pdb
 140 130 0 0 0
SMALL
GASTEIGER

@<TRIPOS>ATOM
      1  N         37.9780   48.8340   16.3560 N.3    14  TYR14      -0.1241
      2  CA        36.5870   48.5230   16.5680 C.3    14  TYR14       0.1605
      3  C         35.9050   48.4160   15.2110 C.2    14  TYR14       0.2264
      4  O         35.2350   47.4260   14.9140 O.2    14  TYR14      -0.2867
      5  CB        35.9340   49.6300   17.3660 C.3    14  TYR14       0.0534
      6  CG        34.4730   49.3970   17.5930 C.ar   14  TYR14      -0.0201
      7  CD1       34.0380   48.5830   18.6340 C.ar   14  TYR14      -0.0009
      8  CD2       33.5200   50.0090   16.7850 C.ar   14  TYR14      -0.0009
      9  CE1       32.6890   48.3940   18.8720 C.ar   14  TYR14       0.0417
     10  CE2       32.1650   49.8230   17.0130 C.ar   14  TYR14       0.0417
     11  CZ        31.7610   49.0190   18.0600 C.ar   14  TYR14       0.1957
     12  OH        30.4270   48.8540   18.3090 O.3    14  TYR14      -0.2866
     13  N         33.9810   45.0350   13.4480 N.3    18  ASN18      -0.1225
     14  CA        32.5410   44.9850   13.2940 C.3    18  ASN18       0.1785
     15  C         31.9580   45.5400   12.0110 C.2    18  ASN18       0.2597
     16  O         30.8330   45.1880   11.6430 O.2    18  ASN18      -0.2718
     17  CB        31.9160   45.6930   14.4820 C.3    18  ASN18       0.1169
     18  CG        32.5120   45.2420   15.7750 C.2    18  ASN18       0.2627
     19  OD1       32.3750   44.0840   16.1490 O.2    18  ASN18      -0.2716
     20  ND2       33.1980   46.1410   16.4640 N.am   18  ASN18      -0.0877
     21  N         32.7010   46.3940   11.3190 N.am   19  TYR19      -0.1976
     22  CA        32.1570   46.9690   10.1080 C.3    19  TYR19       0.1639
     23  C         32.9440   46.7700    8.8250 C.2    19  TYR19       0.2290
     24  O         32.7890   47.5220    7.8600 O.2    19  TYR19      -0.2864
     25  CB        31.8520   48.4390   10.3620 C.3    19  TYR19       0.0560
     26  CG        30.8700   48.5740   11.4900 C.ar   19  TYR19      -0.0198
     27  CD1       31.3020   48.7140   12.8060 C.ar   19  TYR19      -0.0009
     28  CD2       29.5030   48.4830   11.2540 C.ar   19  TYR19      -0.0009
     29  CE1       30.3890   48.7650   13.8630 C.ar   19  TYR19       0.0417
     30  CE2       28.5870   48.5270   12.2970 C.ar   19  TYR19       0.0417
     31  CZ        29.0350   48.6740   13.5940 C.ar   19  TYR19       0.1957
     32  OH        28.1160   48.7730   14.6040 O.3    19  TYR19      -0.2866
     33  N         31.5540   40.8790    8.7000 N.3    23  ARG23      -0.1245
     34  CA        30.3690   41.5610    9.1960 C.3    23  ARG23       0.1563
     35  C         29.9760   42.7550    8.3490 C.2    23  ARG23       0.2260
     36  O         28.7920   43.0930    8.2370 O.2    23  ARG23      -0.2867
     37  CB        30.5920   42.0050   10.6460 C.3    23  ARG23       0.0307
     38  CG        30.8920   40.8460   11.5620 C.3    23  ARG23       0.0489
     39  CD        31.0030   41.2480   13.0140 C.3    23  ARG23       0.2205
     40  NE        31.0620   40.0490   13.8410 N.pl3  23  ARG23      -0.0865
     41  CZ        30.9530   40.0260   15.1640 C.cat  23  ARG23       0.5346
     42  NH1       30.7780   41.1510   15.8510 N.pl3  23  ARG23       0.1354
     43  NH2       31.0190   38.8610   15.7930 N.pl3  23  ARG23       0.1354
     44  N         24.1910   40.6520    9.3580 N.3    32  VAL32      -0.1245
     45  CA        23.7810   41.6000   10.3810 C.3    32  VAL32       0.1561
     46  C         23.6460   42.9970    9.8210 C.2    32  VAL32       0.2260
     47  O         22.7730   43.7590   10.2360 O.2    32  VAL32      -0.2867
     48  CB        24.8110   41.7050   11.5150 C.3    32  VAL32       0.0252
     49  CG1       24.0950   41.7790   12.8640 C.3    32  VAL32       0.0019
     50  CG2       25.7850   40.5530   11.4440 C.3    32  VAL32       0.0019
     51  N         20.2820   44.9490   10.2900 N.3    36  LYS36      -0.1245
     52  CA        20.2170   46.1520   11.1070 C.3    36  LYS36       0.1561
     53  C         19.6560   47.3140   10.3080 C.2    36  LYS36       0.2260
     54  O         18.7370   48.0020   10.7640 O.2    36  LYS36      -0.2867
     55  CB        21.5910   46.5130   11.6670 C.3    36  LYS36       0.0271
     56  CG        22.0300   45.6150   12.8090 C.3    36  LYS36       0.0035
     57  CD        23.3220   46.0980   13.4430 C.3    36  LYS36       0.0206
     58  CE        24.5150   45.9170   12.5200 C.3    36  LYS36       0.1093
     59  NZ        25.6710   46.7140   13.0120 N.3    36  LYS36      -0.1314
     60  N         24.4260   49.3420   20.3420 N.3   161  PHE161     -0.1241
     61  CA        25.4910   48.7440   21.1240 C.3   161  PHE161      0.1605
     62  C         26.1720   49.6440   22.1580 C.2   161  PHE161      0.2264
     63  O         27.3980   49.6000   22.2990 O.2   161  PHE161     -0.2867
     64  CB        26.5420   48.1770   20.1870 C.3   161  PHE161      0.0534
     65  CG        25.9750   47.3140   19.1200 C.ar  161  PHE161     -0.0203
     66  CD1       25.5690   47.8640   17.9130 C.ar  161  PHE161     -0.0042
     67  CD2       25.8340   45.9520   19.3200 C.ar  161  PHE161     -0.0042
     68  CE1       25.0410   47.0650   16.9150 C.ar  161  PHE161     -0.0003
     69  CE2       25.3070   45.1490   18.3270 C.ar  161  PHE161     -0.0003
     70  CZ        24.9080   45.7050   17.1240 C.ar  161  PHE161     -0.0000
     71  N         24.4460   48.1390   26.9260 N.3   164  GLU164     -0.1231
     72  CA        24.9920   46.8480   27.3260 C.3   164  GLU164      0.1699
     73  C         26.5010   46.8520   27.4860 C.2   164  GLU164      0.2592
     74  O         27.0260   46.1570   28.3480 O.2   164  GLU164     -0.2718
     75  CB        24.6420   45.7490   26.3190 C.3   164  GLU164      0.0402
     76  CG        23.4770   46.0410   25.4220 C.3   164  GLU164      0.1161
     77  CD        23.8950   46.6710   24.1130 C.2   164  GLU164      0.3649
     78  OE1       24.8750   46.1770   23.5140 O.co2 164  GLU164     -0.2457
     79  OE2       23.2340   47.6420   23.6740 O.co2 164  GLU164     -0.2457
     80  N         27.1940   47.6100   26.6400 N.am  165  ALA165     -0.1980
     81  CA        28.6620   47.6550   26.6630 C.3   165  ALA165      0.1597
     82  C         29.2790   48.6500   27.6290 C.2   165  ALA165      0.2287
     83  O         30.4980   48.7190   27.7580 O.2   165  ALA165     -0.2864
     84  CB        29.2140   47.9130   25.2440 C.3   165  ALA165      0.0319
     85  N         23.7010   44.1740   21.7130 N.3   195  ALA195     -0.1245
     86  CA        24.1720   42.7940   21.7030 C.3   195  ALA195      0.1562
     87  C         23.3550   41.9540   22.6860 C.2   195  ALA195      0.2260
     88  O         23.0510   42.3910   23.7930 O.2   195  ALA195     -0.2867
     89  CB        25.6480   42.7400   22.0700 C.3   195  ALA195      0.0290
     90  N         25.9390   38.9580   25.3040 N.3   198  GLU198     -0.1245
     91  CA        27.3590   39.1930   25.0480 C.3   198  GLU198      0.1567
     92  C         28.0470   39.5240   26.3660 C.2   198  GLU198      0.2260
     93  O         27.4650   40.1940   27.2220 O.2   198  GLU198     -0.2867
     94  CB        27.5560   40.3440   24.0490 C.3   198  GLU198      0.0388
     95  CG        28.9650   40.9070   24.0910 C.3   198  GLU198      0.1160
     96  CD        29.2540   41.9110   23.0030 C.2   198  GLU198      0.3649
     97  OE1       29.4730   41.4830   21.8500 O.co2 198  GLU198     -0.2457
     98  OE2       29.2650   43.1230   23.3050 O.co2 198  GLU198     -0.2457
     99  N         34.1670   41.9230   24.3190 N.3   201  TYR201     -0.1241
    100  CA        34.4810   42.2160   22.9300 C.3   201  TYR201      0.1605
    101  C         35.7530   43.0480   22.8920 C.2   201  TYR201      0.2264
    102  O         35.9820   43.8910   23.7550 O.2   201  TYR201     -0.2867
    103  CB        33.3190   42.9450   22.2480 C.3   201  TYR201      0.0534
    104  CG        33.1920   44.4070   22.5880 C.ar  201  TYR201     -0.0201
    105  CD1       33.9260   45.3660   21.8900 C.ar  201  TYR201     -0.0009
    106  CD2       32.3170   44.8400   23.5880 C.ar  201  TYR201     -0.0009
    107  CE1       33.7890   46.7180   22.1710 C.ar  201  TYR201      0.0417
    108  CE2       32.1730   46.1970   23.8790 C.ar  201  TYR201      0.0417
    109  CZ        32.9110   47.1280   23.1610 C.ar  201  TYR201      0.1957
    110  OH        32.7580   48.4700   23.4110 O.3   201  TYR201     -0.2866
    111  N         23.2600   35.5210   15.5240 N.3   237  MET237     -0.1245
    112  CA        24.5230   35.5980   14.8030 C.3   237  MET237      0.1570
    113  C         24.8520   34.2550   14.2020 C.2   237  MET237      0.2261
    114  O         24.8710   33.2500   14.8920 O.2   237  MET237     -0.2867
    115  CB        25.6630   36.0570   15.7180 C.3   237  MET237      0.0387
    116  CG        25.7050   37.5700   15.9520 C.3   237  MET237      0.0595
    117  SD        26.2400   38.5340   14.4980 S.3   237  MET237     -0.1393
    118  CE        27.3890   39.7950   15.2300 C.3   237  MET237      0.0692
    119  N         34.6030   38.8870   19.8210 N.3   246  ASP246     -0.1239
    120  CA        33.6580   38.9650   20.9310 C.3   246  ASP246      0.1674
    121  C         32.8930   37.6650   21.0170 C.2   246  ASP246      0.2266
    122  O         33.2210   36.7150   20.3210 O.2   246  ASP246     -0.2867
    123  CB        32.6990   40.1270   20.7260 C.3   246  ASP246      0.1410
    124  CG        32.0600   40.1020   19.3720 C.2   246  ASP246      0.3668
    125  OD1       31.2840   39.1710   19.1040 O.co2 246  ASP246     -0.2456
    126  OD2       32.3390   40.9990   18.5550 O.co2 246  ASP246     -0.2456
    127  N         29.2000   37.5490   21.0740 N.3   248  VAL248     -0.1245
    128  CA        27.7680   37.8260   20.8630 C.3   248  VAL248      0.1561
    129  C         27.0180   36.5740   20.4630 C.2   248  VAL248      0.2260
    130  O         27.5500   35.7380   19.7380 O.2   248  VAL248     -0.2867
    131  CB        27.5020   38.8380   19.7250 C.3   248  VAL248      0.0252
    132  CG1       26.5540   39.8920   20.1830 C.3   248  VAL248      0.0019
    133  CG2       28.7470   39.4860   19.2990 C.3   248  VAL248      0.0019
    134  N         21.6610   39.7000   18.0750 N.3   251  VAL251     -0.1245
    135  CA        21.5250   41.1450   18.1720 C.3   251  VAL251      0.1561
    136  C         20.0400   41.4710   18.2210 C.2   251  VAL251      0.2260
    137  O         19.2310   40.8250   17.5460 O.2   251  VAL251     -0.2867
    138  CB        22.1600   41.8640   16.9460 C.3   251  VAL251      0.0252
    139  CG1       21.9260   43.3630   17.0420 C.3   251  VAL251      0.0019
    140  CG2       23.6460   41.5800   16.8800 C.3   251  VAL251      0.0019
@<TRIPOS>BOND
     1    24    23    2
     2    36    35    2
     3    35    34    1
     4    33    34    1
     5    23    22    1
     6    34    37    1
     7    44    45    1
     8    46    47    2
     9    46    45    1
    10    22    25    1
    11    22    21    1
    12    51    52    1
    13    53    54    2
    14    53    52    1
    15    25    26    1
    16    45    48    1
    17    37    38    1
    18    52    55    1
    19    28    26   ar
    20    28    30   ar
    21    21    15   am
    22    50    48    1
    23    26    27   ar
    24    48    49    1
    25    38    39    1
    26    16    15    2
    27    55    56    1
    28    15    14    1
    29    30    31   ar
    30    58    59    1
    31    58    57    1
    32    27    29   ar
    33    56    57    1
    34    39    40    1
    35    14    13    1
    36    14    17    1
    37    31    29   ar
    38    31    32    1
    39    40    41    2
    40   113   112    1
    41   113   114    2
    42    17    18    1
    43   117   118    1
    44   117   116    1
    45   112   111    1
    46   112   115    1
    47     4     3    2
    48    41    43    1
    49    41    42    1
    50     3     2    1
    51   115   116    1
    52    18    19    2
    53    18    20   am
    54     1     2    1
    55     2     5    1
    56     8    10   ar
    57     8     6   ar
    58   140   138    1
    59    68    70   ar
    60    68    66   ar
    61   138   139    1
    62   138   135    1
    63    10    11   ar
    64    70    69   ar
    65     5     6    1
    66   137   136    2
    67     6     7   ar
    68    66    65   ar
    69    11    12    1
    70    11     9   ar
    71   134   135    1
    72   135   136    1
    73    69    67   ar
    74   126   124   ar
    75     7     9   ar
    76   125   124   ar
    77    65    67   ar
    78    65    64    1
    79   133   131    1
    80   124   123    1
    81   131   132    1
    82   131   128    1
    83   130   129    2
    84   119   120    1
    85    64    61    1
    86   122   121    2
    87    60    61    1
    88   129   128    1
    89   123   120    1
    90   128   127    1
    91   120   121    1
    92    61    62    1
    93    86    85    1
    94    86    89    1
    95    86    87    1
    96    97    96   ar
    97   105   107   ar
    98   105   104   ar
    99    62    63    2
   100   107   109   ar
   101   103   104    1
   102   103   100    1
   103   104   106   ar
   104    87    88    2
   105   101   100    1
   106   101   102    2
   107   100    99    1
   108    96    98   ar
   109    96    95    1
   110   109   110    1
   111   109   108   ar
   112    78    77   ar
   113   106   108   ar
   114    79    77   ar
   115    94    95    1
   116    94    91    1
   117    77    76    1
   118    91    90    1
   119    91    92    1
   120    84    81    1
   121    76    75    1
   122    75    72    1
   123    92    93    2
   124    80    81    1
   125    80    73   am
   126    81    82    1
   127    71    72    1
   128    72    73    1
   129    73    74    2
   130    82    83    2
