@<TRIPOS>MOLECULE
tmp/1n7tA00.pdb
 160 158 0 0 0
SMALL
GASTEIGER

@<TRIPOS>ATOM
      1  N          6.7250   14.3360   -4.0440 N.3    22  GLU22      -0.1231
      2  CA         7.2600   12.9760   -4.1090 C.3    22  GLU22       0.1699
      3  C          7.0910   12.3750   -5.5040 C.2    22  GLU22       0.2592
      4  O          6.6160   13.0410   -6.4240 O.2    22  GLU22      -0.2718
      5  CB         6.5640   12.0930   -3.0720 C.3    22  GLU22       0.0402
      6  CG         6.7510   12.5820   -1.6450 C.3    22  GLU22       0.1161
      7  CD         8.1480   12.3220   -1.1180 C.2    22  GLU22       0.3649
      8  OE1        8.6020   11.1600   -1.1890 O.co2  22  GLU22      -0.2457
      9  OE2        8.7890   13.2790   -0.6350 O.co2  22  GLU22      -0.2457
     10  N          7.4880   11.1120   -5.6490 N.am   23  LEU23      -0.1966
     11  CA         7.3880   10.4150   -6.9280 C.3    23  LEU23       0.1728
     12  C          5.9290   10.2720   -7.3620 C.2    23  LEU23       0.2617
     13  O          5.5430   10.7690   -8.4190 O.2    23  LEU23      -0.2715
     14  CB         8.0490    9.0370   -6.8330 C.3    23  LEU23       0.0311
     15  CG         9.5840    9.0730   -6.7100 C.3    23  LEU23       0.0022
     16  CD1       10.0230    8.8170   -5.2750 C.3    23  LEU23       0.0001
     17  CD2       10.2410    8.0620   -7.6450 C.3    23  LEU23       0.0001
     18  N          5.1220    9.6130   -6.5310 N.am   24  GLY24      -0.1940
     19  CA         3.7140    9.4380   -6.8420 C.3    24  GLY24       0.2014
     20  C          3.3550    8.0210   -7.2610 C.2    24  GLY24       0.2639
     21  O          2.4340    7.8230   -8.0530 O.2    24  GLY24      -0.2714
     22  N          4.0690    7.0320   -6.7270 N.am   25  PHE25      -0.1959
     23  CA         3.7940    5.6340   -7.0570 C.3    25  PHE25       0.1771
     24  C          4.4230    4.6900   -6.0340 C.2    25  PHE25       0.2620
     25  O          5.3940    5.0420   -5.3620 O.2    25  PHE25      -0.2715
     26  CB         4.2940    5.3030   -8.4660 C.3    25  PHE25       0.0574
     27  CG         5.7870    5.3970   -8.6260 C.ar   25  PHE25      -0.0200
     28  CD1        6.6100    4.3750   -8.1850 C.ar   25  PHE25      -0.0042
     29  CD2        6.3640    6.5060   -9.2260 C.ar   25  PHE25      -0.0042
     30  CE1        7.9810    4.4550   -8.3370 C.ar   25  PHE25      -0.0003
     31  CE2        7.7340    6.5910   -9.3810 C.ar   25  PHE25      -0.0003
     32  CZ         8.5440    5.5650   -8.9360 C.ar   25  PHE25      -0.0000
     33  N          3.8550    3.4910   -5.9160 N.am   26  SER26      -0.1936
     34  CA         4.3460    2.4910   -4.9700 C.3    26  SER26       0.2055
     35  C          5.0500    1.3420   -5.6890 C.2    26  SER26       0.2643
     36  O          4.7450    1.0400   -6.8440 O.2    26  SER26      -0.2714
     37  CB         3.1870    1.9430   -4.1370 C.3    26  SER26       0.2130
     38  OG         2.0280    1.7600   -4.9330 O.3    26  SER26      -0.2179
     39  N          5.9830    0.7000   -4.9910 N.am   27  ILE27      -0.1963
     40  CA         6.7260   -0.4280   -5.5490 C.3    27  ILE27       0.1727
     41  C          6.5100   -1.6830   -4.7080 C.2    27  ILE27       0.2616
     42  O          6.3120   -1.5990   -3.4960 O.2    27  ILE27      -0.2715
     43  CB         8.2400   -0.1280   -5.6300 C.3    27  ILE27       0.0290
     44  CG1        8.7980    0.2220   -4.2480 C.3    27  ILE27       0.0022
     45  CG2        8.5080    1.0020   -6.6120 C.3    27  ILE27       0.0023
     46  CD1       10.3100    0.2630   -4.2050 C.3    27  ILE27       0.0001
     47  N          6.5440   -2.8430   -5.3530 N.am   28  SER28      -0.1950
     48  CA         6.3460   -4.1080   -4.6540 C.3    28  SER28       0.1924
     49  C          7.3040   -5.1750   -5.1710 C.2    28  SER28       0.2314
     50  O          7.9520   -4.9960   -6.2030 O.2    28  SER28      -0.2863
     51  CB         4.9030   -4.5850   -4.8170 C.3    28  SER28       0.2116
     52  OG         4.6690   -5.7720   -4.0790 O.3    28  SER28      -0.2180
     53  N          8.4940   -8.1810    1.0220 N.3    34  ARG34      -0.1231
     54  CA         7.1130   -8.5650    1.2980 C.3    34  ARG34       0.1694
     55  C          6.5710   -9.5040    0.2210 C.2    34  ARG34       0.2592
     56  O          5.7040  -10.3330    0.4940 O.2    34  ARG34      -0.2718
     57  CB         6.2270   -7.3210    1.3980 C.3    34  ARG34       0.0321
     58  CG         6.7250   -6.3040    2.4220 C.3    34  ARG34       0.0489
     59  CD         7.3030   -5.0570    1.7620 C.3    34  ARG34       0.2205
     60  NE         7.5650   -3.9920    2.7330 N.pl3  34  ARG34      -0.0865
     61  CZ         6.6430   -3.1320    3.1750 C.cat  34  ARG34       0.5346
     62  NH1        5.3840   -3.1970    2.7500 N.pl3  34  ARG34       0.1354
     63  NH2        6.9840   -2.1990    4.0530 N.pl3  34  ARG34       0.1354
     64  N          7.0810   -9.3650   -1.0020 N.am   35  GLY35      -0.1957
     65  CA         6.6300  -10.2060   -2.1020 C.3    35  GLY35       0.1869
     66  C          5.7750   -9.4490   -3.1030 C.2    35  GLY35       0.2309
     67  O          5.1320   -8.4590   -2.7550 O.2    35  GLY35      -0.2863
     68  N          2.5790   -9.6960   -5.9370 N.3    37  PRO37      -0.2102
     69  CA         1.4350  -10.5030   -6.3480 C.3    37  PRO37       0.1504
     70  C          1.1460  -10.4160   -7.8480 C.2    37  PRO37       0.2575
     71  O         -0.0120  -10.4540   -8.2650 O.2    37  PRO37      -0.2718
     72  CB         0.3000   -9.8780   -5.5460 C.3    37  PRO37       0.0282
     73  CG         0.6490   -8.4260   -5.4550 C.3    37  PRO37       0.0208
     74  CD         2.1540   -8.3150   -5.6220 C.3    37  PRO37       0.0893
     75  N          2.2000  -10.3010   -8.6530 N.am   38  PHE38      -0.1977
     76  CA         2.0530  -10.2120  -10.1060 C.3    38  PHE38       0.1639
     77  C          2.6960  -11.4150  -10.7950 C.2    38  PHE38       0.2290
     78  O          2.0810  -12.0550  -11.6480 O.2    38  PHE38      -0.2864
     79  CB         2.6830   -8.9180  -10.6260 C.3    38  PHE38       0.0560
     80  CG         1.8750   -7.6890  -10.3180 C.ar   38  PHE38      -0.0200
     81  CD1        2.0400   -7.0220   -9.1130 C.ar   38  PHE38      -0.0042
     82  CD2        0.9540   -7.2000  -11.2300 C.ar   38  PHE38      -0.0042
     83  CE1        1.3000   -5.8910   -8.8260 C.ar   38  PHE38      -0.0003
     84  CE2        0.2100   -6.0680  -10.9480 C.ar   38  PHE38      -0.0003
     85  CZ         0.3840   -5.4140   -9.7430 C.ar   38  PHE38      -0.0000
     86  N          2.9830   -1.6590   -8.7170 N.3    48  THR48      -0.1203
     87  CA         1.5900   -2.1010   -8.4710 C.3    48  THR48       0.1994
     88  C          0.5050   -1.1070   -8.9350 C.2    48  THR48       0.2618
     89  O         -0.3980   -1.4870   -9.6830 O.2    48  THR48      -0.2717
     90  CB         1.3970   -2.4060   -6.9840 C.3    48  THR48       0.1784
     91  OG1        0.0420   -2.7080   -6.7060 O.3    48  THR48      -0.2211
     92  CG2        1.8050   -1.2650   -6.0790 C.3    48  THR48       0.0376
     93  N          0.5740    0.1480   -8.4830 N.am   49  ARG49      -0.1965
     94  CA        -0.4320    1.1420   -8.8690 C.3    49  ARG49       0.1729
     95  C          0.0630    2.5730   -8.6640 C.2    49  ARG49       0.2616
     96  O          1.1130    2.8050   -8.0640 O.2    49  ARG49      -0.2715
     97  CB        -1.7190    0.9260   -8.0720 C.3    49  ARG49       0.0348
     98  CG        -1.5030    0.9000   -6.5680 C.3    49  ARG49       0.0492
     99  CD        -2.8250    0.8980   -5.8120 C.3    49  ARG49       0.2205
    100  NE        -3.3590    2.2490   -5.6390 N.pl3  49  ARG49      -0.0865
    101  CZ        -4.6460    2.5270   -5.4030 C.cat  49  ARG49       0.5346
    102  NH1       -5.5500    1.5550   -5.3050 N.pl3  49  ARG49       0.1354
    103  NH2       -5.0300    3.7880   -5.2640 N.pl3  49  ARG49       0.1354
    104  N         -0.7180    3.5270   -9.1670 N.am   50  VAL50      -0.1963
    105  CA        -0.3940    4.9460   -9.0490 C.3    50  VAL50       0.1727
    106  C         -1.5570    5.7060   -8.4070 C.2    50  VAL50       0.2616
    107  O         -2.7170    5.3430   -8.5980 O.2    50  VAL50      -0.2715
    108  CB        -0.0850    5.5710  -10.4290 C.3    50  VAL50       0.0290
    109  CG1        0.4510    6.9870  -10.2770 C.3    50  VAL50       0.0023
    110  CG2        0.9020    4.7080  -11.2040 C.3    50  VAL50       0.0023
    111  N         -1.2430    6.7520   -7.6410 N.am   51  GLN51      -0.1964
    112  CA        -2.2750    7.5470   -6.9780 C.3    51  GLN51       0.1718
    113  C         -2.4960    8.8850   -7.6980 C.2    51  GLN51       0.2458
    114  O         -3.5520    9.0900   -8.2970 O.2    51  GLN51      -0.2730
    115  CB        -1.9180    7.7650   -5.5060 C.3    51  GLN51       0.0407
    116  CG        -2.4610    6.6800   -4.5870 C.3    51  GLN51       0.0908
    117  CD        -3.8540    6.9890   -4.0730 C.2    51  GLN51       0.2608
    118  OE1       -4.5250    7.8940   -4.5700 O.2    51  GLN51      -0.2717
    119  NE2       -4.2960    6.2360   -3.0720 N.am   51  GLN51      -0.0878
    120  N         -1.5170    9.8230   -7.6730 N.am   52  PRO52      -0.2727
    121  CA        -1.6690   11.1130   -8.3520 C.3    52  PRO52       0.1402
    122  C         -1.4060   11.0090   -9.8520 C.2    52  PRO52       0.2269
    123  O         -0.3090   10.6400  -10.2730 O.2    52  PRO52      -0.2865
    124  CB        -0.6060   11.9770   -7.6830 C.3    52  PRO52       0.0296
    125  CG         0.4830   11.0190   -7.3530 C.3    52  PRO52       0.0237
    126  CD        -0.2000    9.7170   -7.0040 C.3    52  PRO52       0.0939
    127  N         14.2570   -5.8810   -1.4190 N.3    79  HIS79      -0.1241
    128  CA        13.2710   -4.7930   -1.4570 C.3    79  HIS79       0.1621
    129  C         13.7360   -3.5560   -0.6790 C.2    79  HIS79       0.2264
    130  O         13.7170   -2.4440   -1.2050 O.2    79  HIS79      -0.2867
    131  CB        11.9280   -5.2690   -0.8980 C.3    79  HIS79       0.0745
    132  CG        10.7880   -4.3610   -1.2450 C.ar   79  HIS79       0.0817
    133  ND1        9.4660   -4.6890   -1.0290 N.ar   79  HIS79      -0.2268
    134  CD2       10.7800   -3.1240   -1.7980 C.ar   79  HIS79       0.1154
    135  CE1        8.6950   -3.6940   -1.4370 C.ar   79  HIS79       0.1986
    136  NE2        9.4690   -2.7330   -1.9060 N.ar   79  HIS79      -0.2212
    137  N         13.8530    0.3930   -2.1400 N.3    83  VAL83      -0.1245
    138  CA        13.1140    1.5170   -1.5720 C.3    83  VAL83       0.1561
    139  C         14.0610    2.6040   -1.0660 C.2    83  VAL83       0.2260
    140  O         13.8290    3.7930   -1.2840 O.2    83  VAL83      -0.2867
    141  CB        12.1980    1.0680   -0.4110 C.3    83  VAL83       0.0252
    142  CG1       11.2820    2.2030    0.0240 C.3    83  VAL83       0.0019
    143  CG2       11.3820   -0.1530   -0.8070 C.3    83  VAL83       0.0019
    144  N         15.4800    4.6560   -4.0250 N.3    86  LEU86      -0.1231
    145  CA        14.4970    5.5550   -4.6240 C.3    86  LEU86       0.1693
    146  C         14.2210    6.7790   -3.7530 C.2    86  LEU86       0.2591
    147  O         13.9900    7.8740   -4.2650 O.2    86  LEU86      -0.2718
    148  CB        13.1930    4.7970   -4.8880 C.3    86  LEU86       0.0284
    149  CG        13.1460    4.0660   -6.2290 C.3    86  LEU86       0.0019
    150  CD1       11.9430    3.1410   -6.2950 C.3    86  LEU86       0.0001
    151  CD2       13.1170    5.0670   -7.3740 C.3    86  LEU86       0.0001
    152  N         14.2230    6.5880   -2.4400 N.am   87  LYS87      -0.1980
    153  CA        13.9480    7.6780   -1.5100 C.3    87  LYS87       0.1596
    154  C         15.0960    8.6840   -1.4260 C.2    87  LYS87       0.2287
    155  O         14.8630    9.8850   -1.2870 O.2    87  LYS87      -0.2864
    156  CB        13.6560    7.1160   -0.1180 C.3    87  LYS87       0.0298
    157  CG        12.2530    6.5470    0.0190 C.3    87  LYS87       0.0038
    158  CD        12.1300    5.6530    1.2430 C.3    87  LYS87       0.0206
    159  CE        10.6750    5.3800    1.5900 C.3    87  LYS87       0.1093
    160  NZ        10.0720    6.4940    2.3730 N.3    87  LYS87      -0.1314
@<TRIPOS>BOND
     1    78    77    2
     2    82    84   ar
     3    82    80   ar
     4   110   108    1
     5    84    85   ar
     6    77    76    1
     7    79    80    1
     8    79    76    1
     9   108   109    1
    10   108   105    1
    11    80    81   ar
    12   123   122    2
    13    76    75    1
    14   122   121    1
    15    85    83   ar
    16    89    88    2
    17    31    29   ar
    18    31    32   ar
    19    29    27   ar
    20   104   105    1
    21   104    95   am
    22    81    83   ar
    23   105   106    1
    24    32    30   ar
    25    88    93   am
    26    88    87    1
    27    94    95    1
    28    94    93    1
    29    94    97    1
    30    86    87    1
    31    95    96    2
    32    75    70   am
    33    27    26    1
    34    27    28   ar
    35   107   106    2
    36    87    90    1
    37    26    23    1
    38    13    12    2
    39   106   111   am
    40   121   124    1
    41   121   120    1
    42    30    28   ar
    43   114   113    2
    44    71    70    2
    45    97    98    1
    46    21    20    2
    47    70    69    1
    48   113   120   am
    49   113   112    1
    50   124   125    1
    51   120   126    1
    52    17    15    1
    53   111   112    1
    54   151   149    1
    55    12    11    1
    56    12    18   am
    57   125   126    1
    58    20    19    1
    59    20    22   am
    60    23    22    1
    61    23    24    1
    62    90    91    1
    63    90    92    1
    64   112   115    1
    65    11    14    1
    66    11    10    1
    67    36    35    2
    68    19    18    1
    69    14    15    1
    70    15    16    1
    71    45    43    1
    72    98    99    1
    73     4     3    2
    74    69    68    1
    75    69    72    1
    76   150   149    1
    77   149   148    1
    78    50    49    2
    79    24    33   am
    80    24    25    2
    81    68    74    1
    82    33    34    1
    83    99   100    1
    84    35    39   am
    85    35    34    1
    86    10     3   am
    87   100   101    2
    88    43    40    1
    89    43    44    1
    90    74    73    1
    91    40    39    1
    92    40    41    1
    93    72    73    1
    94   115   116    1
    95     3     2    1
    96   101   102    1
    97   101   103    1
    98    47    41   am
    99    47    48    1
   100    49    48    1
   101    34    37    1
   102    38    37    1
   103   148   145    1
   104    51    48    1
   105    51    52    1
   106    41    42    2
   107   145   144    1
   108   145   146    1
   109   116   117    1
   110   118   117    2
   111   147   146    2
   112    44    46    1
   113     2     1    1
   114     2     5    1
   115   117   119   am
   116   146   152   am
   117    66    67    2
   118    66    65    1
   119     5     6    1
   120   152   153    1
   121   137   138    1
   122    65    64    1
   123   136   134   ar
   124   136   135   ar
   125   134   132   ar
   126     6     7    1
   127   138   139    1
   128   138   141    1
   129   153   154    1
   130   153   156    1
   131   128   127    1
   132   128   131    1
   133   128   129    1
   134   135   133   ar
   135   154   155    2
   136   140   139    2
   137   132   133   ar
   138   132   131    1
   139   130   129    2
   140     8     7   ar
   141     7     9   ar
   142    64    55   am
   143   143   141    1
   144   141   142    1
   145   156   157    1
   146   157   158    1
   147    55    56    2
   148    55    54    1
   149    53    54    1
   150   158   159    1
   151    54    57    1
   152    57    58    1
   153   159   160    1
   154    59    58    1
   155    59    60    1
   156    60    61    2
   157    62    61    1
   158    61    63    1
