@<TRIPOS>MOLECULE
tmp/1n83A00.pdb
 246 238 0 0 0
SMALL
GASTEIGER

@<TRIPOS>ATOM
      1  N          7.6360   23.6820   15.1010 N.3    28  CYS28      -0.1221
      2  CA         8.6080   24.4670   15.8620 C.3    28  CYS28       0.1808
      3  C          8.2510   24.3230   17.3360 C.2    28  CYS28       0.2601
      4  O          7.0690   24.3890   17.7010 O.2    28  CYS28      -0.2717
      5  CB         8.5680   25.9300   15.4600 C.3    28  CYS28       0.0970
      6  SG         9.3260   26.2910   13.8740 S.3    28  CYS28      -0.0800
      7  N          9.2510   24.1170   18.1920 N.am   29  GLN29      -0.1979
      8  CA         8.9810   23.9450   19.6170 C.3    29  GLN29       0.1601
      9  C          8.3560   25.1760   20.2660 C.2    29  GLN29       0.2287
     10  O          7.4760   25.0370   21.1210 O.2    29  GLN29      -0.2864
     11  CB        10.2400   23.5260   20.3790 C.3    29  GLN29       0.0394
     12  CG         9.9890   23.3170   21.8710 C.3    29  GLN29       0.0908
     13  CD        11.1760   22.7390   22.5840 C.2    29  GLN29       0.2608
     14  OE1       12.3150   22.9280   22.1550 O.2    29  GLN29      -0.2717
     15  NE2       10.9220   22.0250   23.6800 N.am   29  GLN29      -0.0878
     16  N         10.0600   33.1630   21.9970 N.3    35  LEU35      -0.1245
     17  CA        11.5130   33.2740   21.9450 C.3    35  LEU35       0.1561
     18  C         11.9740   34.7160   22.0810 C.2    35  LEU35       0.2260
     19  O         12.9690   35.0000   22.7290 O.2    35  LEU35      -0.2867
     20  CB        12.0270   32.7070   20.6100 C.3    35  LEU35       0.0270
     21  CG        11.8340   31.2050   20.5050 C.3    35  LEU35       0.0019
     22  CD1       11.8940   30.7950   19.0520 C.3    35  LEU35       0.0001
     23  CD2       12.8640   30.4290   21.3220 C.3    35  LEU35       0.0001
     24  N         31.1420   19.4550   22.8070 N.3    60  TRP60      -0.1241
     25  CA        30.7160   18.9140   21.5320 C.3    60  TRP60       0.1605
     26  C         29.5090   18.0120   21.7190 C.2    60  TRP60       0.2264
     27  O         28.5340   18.0990   20.9830 O.2    60  TRP60      -0.2867
     28  CB        31.8330   18.1190   20.8750 C.3    60  TRP60       0.0550
     29  CG        32.6430   18.8660   19.8970 C.ar   60  TRP60       0.0003
     30  CD1       33.7300   19.6520   20.1520 C.ar   60  TRP60       0.0946
     31  CD2       32.4520   18.9070   18.4700 C.ar   60  TRP60       0.0152
     32  NE1       34.2240   20.1680   18.9770 N.ar   60  TRP60      -0.2442
     33  CE2       33.4600   19.7200   17.9350 C.ar   60  TRP60       0.0810
     34  CE3       31.5380   18.3230   17.5960 C.ar   60  TRP60       0.0012
     35  CZ2       33.5770   19.9610   16.5700 C.ar   60  TRP60       0.0191
     36  CZ3       31.6440   18.5720   16.2550 C.ar   60  TRP60       0.0001
     37  CH2       32.6610   19.3660   15.7490 C.ar   60  TRP60       0.0015
     38  N         26.3680   20.0300   22.3760 N.3    63  CYS63      -0.1221
     39  CA        25.9070   20.7150   21.1760 C.3    63  CYS63       0.1808
     40  C         25.2630   19.7340   20.1930 C.2    63  CYS63       0.2601
     41  O         24.2410   20.0350   19.5720 O.2    63  CYS63      -0.2717
     42  CB        27.0650   21.4700   20.5320 C.3    63  CYS63       0.0970
     43  SG        27.5620   22.9010   21.4860 S.3    63  CYS63      -0.0800
     44  N         25.8150   18.5210   20.1090 N.am   64  ALA64      -0.1979
     45  CA        25.2700   17.5180   19.2270 C.3    64  ALA64       0.1597
     46  C         23.8810   17.0880   19.7090 C.2    64  ALA64       0.2287
     47  O         22.9600   16.9330   18.8990 O.2    64  ALA64      -0.2864
     48  CB        26.2220   16.3370   19.1130 C.3    64  ALA64       0.0319
     49  N         21.7600   18.9540   21.4270 N.3    66  LYS66      -0.1231
     50  CA        20.8230   20.0450   21.1950 C.3    66  LYS66       0.1693
     51  C         20.4910   20.2370   19.7090 C.2    66  LYS66       0.2591
     52  O         19.3370   20.5300   19.3520 O.2    66  LYS66      -0.2718
     53  CB        21.3640   21.3270   21.8270 C.3    66  LYS66       0.0285
     54  CG        21.5560   21.2400   23.3390 C.3    66  LYS66       0.0035
     55  CD        20.2850   20.8570   24.0770 C.3    66  LYS66       0.0206
     56  CE        20.5200   20.8420   25.5720 C.3    66  LYS66       0.1093
     57  NZ        19.2800   20.5110   26.3300 N.3    66  LYS66      -0.1314
     58  N         21.4790   20.0530   18.8380 N.am   67  ILE67      -0.1980
     59  CA        21.2430   20.1000   17.3880 C.3    67  ILE67       0.1595
     60  C         20.2820   19.0110   16.9800 C.2    67  ILE67       0.2287
     61  O         19.3620   19.2200   16.1850 O.2    67  ILE67      -0.2864
     62  CB        22.5780   19.9180   16.6300 C.3    67  ILE67       0.0276
     63  CG1       23.3010   21.2440   16.6280 C.3    67  ILE67       0.0022
     64  CG2       22.3480   19.3830   15.2030 C.3    67  ILE67       0.0022
     65  CD1       24.7010   21.1840   16.0440 C.3    67  ILE67       0.0001
     66  N         16.6950   19.7460   17.6280 N.3    70  ALA70      -0.1245
     67  CA        16.1520   20.6550   16.6040 C.3    70  ALA70       0.1562
     68  C         15.8920   19.9190   15.2930 C.2    70  ALA70       0.2260
     69  O         14.8860   20.1450   14.6190 O.2    70  ALA70      -0.2867
     70  CB        17.0780   21.8090   16.3810 C.3    70  ALA70       0.0290
     71  N         17.7320   23.9840   10.2300 N.3   104  VAL104     -0.1231
     72  CA        18.0330   24.3430   11.6160 C.3   104  VAL104      0.1692
     73  C         18.6440   25.7530   11.6580 C.2   104  VAL104      0.2592
     74  O         18.2420   26.5780   12.4790 O.2   104  VAL104     -0.2718
     75  CB        18.9820   23.3440   12.2880 C.3   104  VAL104      0.0266
     76  CG1       19.4940   23.9170   13.6090 C.3   104  VAL104      0.0020
     77  CG2       18.2960   22.0040   12.5110 C.3   104  VAL104      0.0020
     78  N         19.5920   26.0410   10.7670 N.am  105  PHE105     -0.1976
     79  CA        20.2380   27.3490   10.7750 C.3   105  PHE105      0.1639
     80  C         19.3250   28.4670   10.2970 C.2   105  PHE105      0.2290
     81  O         19.5150   29.6190   10.6960 O.2   105  PHE105     -0.2864
     82  CB        21.5580   27.3420   10.0250 C.3   105  PHE105      0.0560
     83  CG        22.6730   26.6890   10.7850 C.ar  105  PHE105     -0.0200
     84  CD1       22.9570   27.0780   12.0860 C.ar  105  PHE105     -0.0042
     85  CD2       23.4350   25.6830   10.2060 C.ar  105  PHE105     -0.0042
     86  CE1       23.9950   26.4870   12.7890 C.ar  105  PHE105     -0.0003
     87  CE2       24.4820   25.0880   10.9200 C.ar  105  PHE105     -0.0003
     88  CZ        24.7560   25.4990   12.2080 C.ar  105  PHE105     -0.0000
     89  N         15.9580   28.3150   10.9210 N.3   107  ARG107     -0.1231
     90  CA        15.1170   28.4260   12.1090 C.3   107  ARG107      0.1694
     91  C         15.8370   29.1630   13.2310 C.2   107  ARG107      0.2591
     92  O         15.1890   29.8090   14.0790 O.2   107  ARG107     -0.2718
     93  CB        14.6650   27.0590   12.5590 C.3   107  ARG107      0.0321
     94  CG        13.6220   26.4420   11.6720 C.3   107  ARG107      0.0489
     95  CD        13.2030   25.0580   12.1160 C.3   107  ARG107      0.2205
     96  NE        11.9440   24.6750   11.4930 N.pl3 107  ARG107     -0.0865
     97  CZ        11.1200   23.7490   11.9450 C.cat 107  ARG107      0.5346
     98  NH1       11.4030   23.0360   13.0290 N.pl3 107  ARG107      0.1354
     99  NH2        9.9690   23.5470   11.3040 N.pl3 107  ARG107      0.1354
    100  N         17.1700   29.1070   13.2340 N.am  108  MET108     -0.1979
    101  CA        17.9550   29.7970   14.2370 C.3   108  MET108      0.1605
    102  C         17.6100   31.2930   14.2980 C.2   108  MET108      0.2287
    103  O         17.6090   31.8710   15.3800 O.2   108  MET108     -0.2864
    104  CB        19.4480   29.6380   13.9490 C.3   108  MET108      0.0413
    105  CG        20.3360   30.1870   15.0260 C.3   108  MET108      0.0598
    106  SD        22.0500   29.9920   14.6790 S.3   108  MET108     -0.1393
    107  CE        22.2500   31.0490   13.2620 C.3   108  MET108      0.0692
    108  N         15.0180   32.7780   14.3710 N.3   110  ARG110     -0.1231
    109  CA        13.9000   33.0050   15.2800 C.3   110  ARG110      0.1694
    110  C         14.2920   33.0240   16.7370 C.2   110  ARG110      0.2591
    111  O         13.5510   33.5280   17.5890 O.2   110  ARG110     -0.2718
    112  CB        12.8870   31.8920   15.1590 C.3   110  ARG110      0.0321
    113  CG        12.3720   31.6480   13.7620 C.3   110  ARG110      0.0489
    114  CD        11.6370   30.3540   13.6520 C.3   110  ARG110      0.2205
    115  NE        10.3010   30.3750   14.2390 N.pl3 110  ARG110     -0.0865
    116  CZ         9.9240   29.7500   15.3490 C.cat 110  ARG110      0.5346
    117  NH1       10.7800   29.0490   16.0800 N.pl3 110  ARG110      0.1354
    118  NH2        8.6630   29.8420   15.7470 N.pl3 110  ARG110      0.1354
    119  N         15.4240   32.4080   17.0190 N.am  111  ALA111     -0.1980
    120  CA        15.9020   32.2220   18.3630 C.3   111  ALA111      0.1597
    121  C         17.2430   32.9190   18.4780 C.2   111  ALA111      0.2287
    122  O         18.1230   32.4650   19.1850 O.2   111  ALA111     -0.2864
    123  CB        16.0500   30.7310   18.6390 C.3   111  ALA111      0.0319
    124  N         22.3280   33.5340   20.8900 N.3   119  VAL119     -0.1231
    125  CA        21.4540   32.5100   20.3440 C.3   119  VAL119      0.1692
    126  C         20.8750   31.6560   21.4670 C.2   119  VAL119      0.2592
    127  O         21.5650   31.3530   22.4180 O.2   119  VAL119     -0.2718
    128  CB        22.2180   31.6090   19.3380 C.3   119  VAL119      0.0266
    129  CG1       23.2830   30.7900   20.0220 C.3   119  VAL119      0.0020
    130  CG2       21.2440   30.7630   18.5620 C.3   119  VAL119      0.0020
    131  N         19.6000   31.2780   21.3610 N.am  120  TYR120     -0.1962
    132  CA        18.9310   30.4700   22.3860 C.3   120  TYR120      0.1771
    133  C         19.5420   29.0650   22.3930 C.2   120  TYR120      0.2619
    134  O         19.4690   28.3400   21.3900 O.2   120  TYR120     -0.2715
    135  CB        17.4320   30.4100   22.0860 C.3   120  TYR120      0.0574
    136  CG        16.5340   29.8740   23.1850 C.ar  120  TYR120     -0.0198
    137  CD1       16.6470   30.3130   24.5030 C.ar  120  TYR120     -0.0009
    138  CD2       15.5410   28.9580   22.8940 C.ar  120  TYR120     -0.0009
    139  CE1       15.7940   29.8380   25.4880 C.ar  120  TYR120      0.0417
    140  CE2       14.7040   28.4860   23.8570 C.ar  120  TYR120      0.0417
    141  CZ        14.8190   28.9200   25.1490 C.ar  120  TYR120      0.1957
    142  OH        13.9490   28.4120   26.0890 O.3   120  TYR120     -0.2866
    143  N         20.1350   28.6770   23.5130 N.am  121  PHE121     -0.1974
    144  CA        20.8960   27.4320   23.6000 C.3   121  PHE121      0.1639
    145  C         20.8850   26.9240   25.0210 C.2   121  PHE121      0.2290
    146  O         21.2710   27.6330   25.9430 O.2   121  PHE121     -0.2864
    147  CB        22.3580   27.6590   23.1890 C.3   121  PHE121      0.0560
    148  CG        23.2790   26.5230   23.5620 C.ar  121  PHE121     -0.0200
    149  CD1       23.2500   25.3290   22.8470 C.ar  121  PHE121     -0.0042
    150  CD2       24.1740   26.6330   24.6240 C.ar  121  PHE121     -0.0042
    151  CE1       24.0860   24.2740   23.1940 C.ar  121  PHE121     -0.0003
    152  CE2       24.9970   25.5720   24.9710 C.ar  121  PHE121     -0.0003
    153  CZ        24.9520   24.4010   24.2540 C.ar  121  PHE121     -0.0000
    154  N         30.5890   28.8910   23.5710 N.3   131  PHE131     -0.1241
    155  CA        31.0220   27.7790   22.7540 C.3   131  PHE131      0.1605
    156  C         32.5300   27.6450   22.6230 C.2   131  PHE131      0.2264
    157  O         32.9890   26.8180   21.8590 O.2   131  PHE131     -0.2867
    158  CB        30.3900   27.9110   21.3780 C.3   131  PHE131      0.0534
    159  CG        28.9010   27.9320   21.4310 C.ar  131  PHE131     -0.0203
    160  CD1       28.2060   29.1270   21.4710 C.ar  131  PHE131     -0.0042
    161  CD2       28.1900   26.7470   21.5390 C.ar  131  PHE131     -0.0042
    162  CE1       26.8290   29.1320   21.5470 C.ar  131  PHE131     -0.0003
    163  CE2       26.8240   26.7600   21.6390 C.ar  131  PHE131     -0.0003
    164  CZ        26.1450   27.9490   21.6430 C.ar  131  PHE131     -0.0000
    165  N         34.5740   24.2520   22.2870 N.3   134  LEU134     -0.1245
    166  CA        34.5490   23.4500   21.0770 C.3   134  LEU134      0.1561
    167  C         35.8620   23.5240   20.3150 C.2   134  LEU134      0.2260
    168  O         36.2050   22.5980   19.5950 O.2   134  LEU134     -0.2867
    169  CB        33.4590   23.9140   20.1280 C.3   134  LEU134      0.0270
    170  CG        32.0330   23.7470   20.6180 C.3   134  LEU134      0.0019
    171  CD1       31.1440   24.3670   19.5710 C.3   134  LEU134      0.0001
    172  CD2       31.6740   22.2860   20.8760 C.3   134  LEU134      0.0001
    173  N         36.3960   25.8390   17.9990 N.3   136  CYS136     -0.1235
    174  CA        35.9110   26.1430   16.6420 C.3   136  CYS136      0.1677
    175  C         35.5350   27.6060   16.5040 C.2   136  CYS136      0.2270
    176  O         34.4500   27.9190   16.0090 O.2   136  CYS136     -0.2867
    177  CB        34.6400   25.3400   16.3600 C.3   136  CYS136      0.0956
    178  SG        34.8350   23.5850   16.6010 S.3   136  CYS136     -0.0801
    179  N         34.2310   28.7870   13.0750 N.3   139  PHE139     -0.1227
    180  CA        32.9330   28.2250   12.7130 C.3   139  PHE139      0.1736
    181  C         31.8330   28.9110   13.5070 C.2   139  PHE139      0.2595
    182  O         30.7810   29.2680   12.9700 O.2   139  PHE139     -0.2718
    183  CB        32.9070   26.7240   12.9770 C.3   139  PHE139      0.0547
    184  CG        31.5500   26.0990   12.8170 C.ar  139  PHE139     -0.0202
    185  CD1       30.9860   25.9390   11.5780 C.ar  139  PHE139     -0.0042
    186  CD2       30.8430   25.6800   13.9270 C.ar  139  PHE139     -0.0042
    187  CE1       29.7320   25.3940   11.4380 C.ar  139  PHE139     -0.0003
    188  CE2       29.5900   25.1210   13.7960 C.ar  139  PHE139     -0.0003
    189  CZ        29.0400   24.9670   12.5560 C.ar  139  PHE139     -0.0000
    190  N         32.0690   29.0770   14.7970 N.am  140  ILE140     -0.1980
    191  CA        31.1050   29.7580   15.6430 C.3   140  ILE140      0.1595
    192  C         30.8900   31.1890   15.1500 C.2   140  ILE140      0.2287
    193  O         29.7540   31.6420   15.0560 O.2   140  ILE140     -0.2864
    194  CB        31.5390   29.7180   17.1110 C.3   140  ILE140      0.0276
    195  CG1       31.5050   28.2690   17.6160 C.3   140  ILE140      0.0022
    196  CG2       30.6480   30.6110   17.9310 C.3   140  ILE140      0.0022
    197  CD1       30.1270   27.6420   17.5580 C.3   140  ILE140      0.0001
    198  N         28.6190   30.9400   12.2280 N.3   143  VAL143     -0.1231
    199  CA        27.2410   30.7260   12.6320 C.3   143  VAL143      0.1692
    200  C         26.5580   32.0330   13.0790 C.2   143  VAL143      0.2592
    201  O         25.4550   32.3640   12.6450 O.2   143  VAL143     -0.2718
    202  CB        27.1680   29.7130   13.7730 C.3   143  VAL143      0.0266
    203  CG1       25.7980   29.7100   14.4150 C.3   143  VAL143      0.0020
    204  CG2       27.5170   28.3340   13.2700 C.3   143  VAL143      0.0020
    205  N         27.2170   32.7830   13.9380 N.am  144  PHE144     -0.1976
    206  CA        26.5940   33.9800   14.4780 C.3   144  PHE144      0.1639
    207  C         26.4610   35.0500   13.3920 C.2   144  PHE144      0.2290
    208  O         25.4710   35.7980   13.3620 O.2   144  PHE144     -0.2864
    209  CB        27.3650   34.5000   15.6740 C.3   144  PHE144      0.0560
    210  CG        27.0160   33.8310   16.9680 C.ar  144  PHE144     -0.0200
    211  CD1       27.4100   32.5330   17.2150 C.ar  144  PHE144     -0.0042
    212  CD2       26.2890   34.5020   17.9340 C.ar  144  PHE144     -0.0042
    213  CE1       27.1050   31.9170   18.4250 C.ar  144  PHE144     -0.0003
    214  CE2       25.9930   33.8830   19.1330 C.ar  144  PHE144     -0.0003
    215  CZ        26.4110   32.6030   19.3730 C.ar  144  PHE144     -0.0000
    216  N         30.4700   22.4050    9.1800 N.3   224  HIS224     -0.1241
    217  CA        30.0660   21.5870   10.3050 C.3   224  HIS224      0.1621
    218  C         30.5130   20.1410   10.0760 C.2   224  HIS224      0.2264
    219  O         31.0740   19.5240   10.9800 O.2   224  HIS224     -0.2867
    220  CB        28.5510   21.6300   10.5110 C.3   224  HIS224      0.0745
    221  CG        28.0390   20.5310   11.3830 C.ar  224  HIS224      0.0817
    222  ND1       27.4300   19.4070   10.8720 N.ar  224  HIS224     -0.2268
    223  CD2       28.0390   20.3810   12.7270 C.ar  224  HIS224      0.1154
    224  CE1       27.0900   18.6050   11.8650 C.ar  224  HIS224      0.1986
    225  NE2       27.4390   19.1740   13.0020 N.ar  224  HIS224     -0.2212
    226  N         34.3690   19.6440   10.2680 N.3   227  LYS227     -0.1245
    227  CA        34.7830   19.6930   11.6650 C.3   227  LYS227      0.1561
    228  C         34.3920   18.4520   12.4630 C.2   227  LYS227      0.2260
    229  O         35.1900   17.9520   13.2750 O.2   227  LYS227     -0.2867
    230  CB        34.2110   20.9410   12.3230 C.3   227  LYS227      0.0271
    231  CG        34.7260   22.2480   11.7010 C.3   227  LYS227      0.0035
    232  CD        36.2230   22.4180   11.9570 C.3   227  LYS227      0.0206
    233  CE        36.6950   23.8290   11.7330 C.3   227  LYS227      0.1093
    234  NZ        37.9440   24.0950   12.5080 N.3   227  LYS227     -0.1314
    235  N         22.0490   11.9620   14.8560 N.3   247  TYR247     -0.1241
    236  CA        23.1420   12.8460   14.4590 C.3   247  TYR247      0.1605
    237  C         24.2060   12.0500   13.6910 C.2   247  TYR247      0.2264
    238  O         24.6760   12.4800   12.6480 O.2   247  TYR247     -0.2867
    239  CB        23.7090   13.5420   15.7060 C.3   247  TYR247      0.0534
    240  CG        24.8290   14.5290   15.4630 C.ar  247  TYR247     -0.0201
    241  CD1       24.5680   15.8850   15.2990 C.ar  247  TYR247     -0.0009
    242  CD2       26.1440   14.1250   15.4520 C.ar  247  TYR247     -0.0009
    243  CE1       25.5840   16.7750   15.1110 C.ar  247  TYR247      0.0417
    244  CE2       27.1660   15.0150   15.2460 C.ar  247  TYR247      0.0417
    245  CZ        26.8820   16.3450   15.0910 C.ar  247  TYR247      0.1957
    246  OH        27.9040   17.2460   14.8920 O.3   247  TYR247     -0.2866
@<TRIPOS>BOND
     1   216   217    1
     2    82    79    1
     3    82    83    1
     4   218   217    1
     5   218   219    2
     6    85    83   ar
     7    85    87   ar
     8    71    72    1
     9   226   227    1
    10    80    81    2
    11    80    79    1
    12   217   220    1
    13   220   221    1
    14    78    79    1
    15    78    73   am
    16    83    84   ar
    17   222   221   ar
    18   222   224   ar
    19    87    88   ar
    20    89    90    1
    21    99    97    1
    22   221   223   ar
    23   187   185   ar
    24   187   189   ar
    25    96    97    2
    26    96    95    1
    27   185   184   ar
    28    72    73    1
    29    72    75    1
    30    73    74    2
    31   227   230    1
    32   227   228    1
    33    94    95    1
    34    94    93    1
    35   231   232    1
    36   231   230    1
    37   233   232    1
    38   233   234    1
    39   224   225   ar
    40    97    98    1
    41    84    86   ar
    42    90    93    1
    43    90    91    1
    44    88    86   ar
    45   198   199    1
    46    75    77    1
    47    75    76    1
    48   228   229    2
    49   189   188   ar
    50   199   200    1
    51   199   202    1
    52   201   200    2
    53   238   237    2
    54   180   183    1
    55   180   179    1
    56   180   181    1
    57   223   225   ar
    58   184   183    1
    59   184   186   ar
    60   182   181    2
    61   200   205   am
    62    91   100   am
    63    91    92    2
    64   100   101    1
    65   107   106    1
    66   204   202    1
    67   208   207    2
    68   207   206    1
    69   181   190   am
    70   114   113    1
    71   114   115    1
    72   237   236    1
    73   113   112    1
    74   202   203    1
    75   188   186   ar
    76     6     5    1
    77   205   206    1
    78   104   101    1
    79   104   105    1
    80   101   102    1
    81   115   116    2
    82   102   103    2
    83   108   109    1
    84   236   235    1
    85   236   239    1
    86   206   209    1
    87    69    68    2
    88   106   105    1
    89   190   191    1
    90   246   245    1
    91   193   192    2
    92   245   243   ar
    93   245   244   ar
    94     1     2    1
    95   243   241   ar
    96   192   191    1
    97   112   109    1
    98    64    62    1
    99   244   242   ar
   100   109   110    1
   101    68    67    1
   102   241   240   ar
   103   116   118    1
   104   116   117    1
   105   242   240   ar
   106     5     2    1
   107   240   239    1
   108   191   194    1
   109   209   210    1
   110    37    36   ar
   111    37    35   ar
   112     2     3    1
   113   176   175    2
   114    65    63    1
   115    61    60    2
   116    36    34   ar
   117   177   178    1
   118   177   174    1
   119    70    67    1
   120   175   174    1
   121    35    33   ar
   122    67    66    1
   123    63    62    1
   124    62    59    1
   125   174   173    1
   126   110   119   am
   127   110   111    2
   128   210   211   ar
   129   210   212   ar
   130    60    59    1
   131   119   120    1
   132   194   195    1
   133   194   196    1
   134   211   213   ar
   135     3     4    2
   136     3     7   am
   137    59    58    1
   138   197   195    1
   139    34    31   ar
   140   212   214   ar
   141    33    31   ar
   142    33    32   ar
   143     7     8    1
   144   120   121    1
   145   120   123    1
   146   213   215   ar
   147    31    29   ar
   148   121   122    2
   149   130   128    1
   150    58    51   am
   151    47    46    2
   152    32    30   ar
   153    22    21    1
   154    48    45    1
   155   214   215   ar
   156    45    46    1
   157    45    44    1
   158   128   129    1
   159   128   125    1
   160    52    51    2
   161   171   170    1
   162    41    40    2
   163   168   167    2
   164     8     9    1
   165     8    11    1
   166    51    50    1
   167    29    30   ar
   168    29    28    1
   169    44    40   am
   170   169   170    1
   171   169   166    1
   172    40    39    1
   173     9    10    2
   174   167   166    1
   175   125   124    1
   176   125   126    1
   177    11    12    1
   178    21    20    1
   179    21    23    1
   180    42    39    1
   181    42    43    1
   182    20    17    1
   183   170   172    1
   184    28    25    1
   185    27    26    2
   186   166   165    1
   187    39    38    1
   188    50    49    1
   189    50    53    1
   190   131   126   am
   191   131   132    1
   192   158   159    1
   193   158   155    1
   194   134   133    2
   195   159   160   ar
   196   159   161   ar
   197   126   127    2
   198   160   162   ar
   199    25    26    1
   200    25    24    1
   201   161   163   ar
   202   162   164   ar
   203   163   164   ar
   204    53    54    1
   205   157   156    2
   206    12    13    1
   207    17    16    1
   208    17    18    1
   209    18    19    2
   210   135   132    1
   211   135   136    1
   212    14    13    2
   213   132   133    1
   214   133   143   am
   215    13    15   am
   216   156   155    1
   217   155   154    1
   218   149   151   ar
   219   149   148   ar
   220   138   136   ar
   221   138   140   ar
   222   136   137   ar
   223   147   148    1
   224   147   144    1
   225   151   153   ar
   226    54    55    1
   227   143   144    1
   228   148   150   ar
   229   144   145    1
   230   140   141   ar
   231    55    56    1
   232   153   152   ar
   233   137   139   ar
   234   150   152   ar
   235   145   146    2
   236   141   139   ar
   237   141   142    1
   238    56    57    1
