@<TRIPOS>MOLECULE
tmp/1n86C00.pdb
 152 148 0 0 0
SMALL
GASTEIGER

@<TRIPOS>ATOM
      1  N         16.8650   -7.4870  105.2150 N.3   199  PHE199     -0.1241
      2  CA        15.7820   -8.0320  104.4330 C.3   199  PHE199      0.1605
      3  C         15.1640   -9.2720  105.0610 C.2   199  PHE199      0.2264
      4  O         13.9420   -9.4240  105.0530 O.2   199  PHE199     -0.2867
      5  CB        16.2690   -8.3080  103.0210 C.3   199  PHE199      0.0534
      6  CG        16.3720   -7.0800  102.1820 C.ar  199  PHE199     -0.0203
      7  CD1       15.2290   -6.4350  101.7410 C.ar  199  PHE199     -0.0042
      8  CD2       17.6080   -6.5540  101.8450 C.ar  199  PHE199     -0.0042
      9  CE1       15.3140   -5.2860  100.9770 C.ar  199  PHE199     -0.0003
     10  CE2       17.7080   -5.3960  101.0760 C.ar  199  PHE199     -0.0003
     11  CZ        16.5610   -4.7640  100.6440 C.ar  199  PHE199     -0.0000
     12  N         16.1650  -12.6420  104.3230 N.3   201  ASP201     -0.1225
     13  CA        16.3500  -13.8730  103.5790 C.3   201  ASP201      0.1805
     14  C         17.6980  -14.4910  103.9710 C.2   201  ASP201      0.2597
     15  O         17.9470  -15.6770  103.7410 O.2   201  ASP201     -0.2718
     16  CB        16.2970  -13.5910  102.0760 C.3   201  ASP201      0.1424
     17  CG        15.0880  -12.7540  101.6840 C.2   201  ASP201      0.3668
     18  OD1       14.0710  -12.8290  102.4010 O.co2 201  ASP201     -0.2456
     19  OD2       15.1470  -12.0330  100.6610 O.co2 201  ASP201     -0.2456
     20  N         18.5610  -13.6720  104.5700 N.am  202  ASP202     -0.1974
     21  CA        19.8830  -14.1070  105.0200 C.3   202  ASP202      0.1709
     22  C         20.5620  -13.0250  105.8490 C.2   202  ASP202      0.2293
     23  O         20.4700  -11.8360  105.5440 O.2   202  ASP202     -0.2864
     24  CB        20.7880  -14.4390  103.8450 C.3   202  ASP202      0.1436
     25  CG        22.0350  -15.1400  104.2850 C.2   202  ASP202      0.3671
     26  OD1       22.0220  -16.3890  104.2960 O.co2 202  ASP202     -0.2456
     27  OD2       23.0120  -14.4490  104.6530 O.co2 202  ASP202     -0.2456
     28  N         22.4930  -10.1490  104.3440 N.3   205  ASP205     -0.1239
     29  CA        21.7550   -9.0910  103.6640 C.3   205  ASP205      0.1674
     30  C         22.1370   -7.6710  104.0380 C.2   205  ASP205      0.2266
     31  O         22.6710   -6.9300  103.2130 O.2   205  ASP205     -0.2867
     32  CB        20.2530   -9.2520  103.8760 C.3   205  ASP205      0.1410
     33  CG        19.7330  -10.5600  103.3520 C.2   205  ASP205      0.3668
     34  OD1       20.3110  -11.0950  102.3740 O.co2 205  ASP205     -0.2456
     35  OD2       18.7350  -11.0440  103.9230 O.co2 205  ASP205     -0.2456
     36  N         25.3210   -6.8730  102.8480 N.3   208  PHE208     -0.1227
     37  CA        25.3920   -6.8220  101.4070 C.3   208  PHE208      0.1736
     38  C         24.5290   -5.7570  100.7660 C.2   208  PHE208      0.2596
     39  O         24.6660   -5.4830   99.5790 O.2   208  PHE208     -0.2718
     40  CB        25.0350   -8.1810  100.8310 C.3   208  PHE208      0.0547
     41  CG        26.1690   -9.1450  100.8400 C.ar  208  PHE208     -0.0202
     42  CD1       27.3850   -8.8100  100.2520 C.ar  208  PHE208     -0.0042
     43  CD2       26.0280  -10.3870  101.4270 C.ar  208  PHE208     -0.0042
     44  CE1       28.4490   -9.7090  100.2510 C.ar  208  PHE208     -0.0003
     45  CE2       27.0870  -11.2980  101.4330 C.ar  208  PHE208     -0.0003
     46  CZ        28.3000  -10.9600  100.8450 C.ar  208  PHE208     -0.0000
     47  N         23.6420   -5.1480  101.5370 N.am  209  THR209     -0.1953
     48  CA        22.7860   -4.1230  100.9650 C.3   209  THR209      0.1897
     49  C         23.1090   -2.7100  101.3990 C.2   209  THR209      0.2313
     50  O         22.2910   -1.8100  101.2200 O.2   209  THR209     -0.2863
     51  CB        21.3250   -4.3890  101.2680 C.3   209  THR209      0.1794
     52  OG1       21.1630   -4.5910  102.6740 O.3   209  THR209     -0.2208
     53  CG2       20.8670   -5.6120  100.5320 C.3   209  THR209      0.0378
     54  N         28.8350   -7.9850   93.8730 N.3   226  PHE226     -0.1227
     55  CA        28.0540   -9.1590   93.4940 C.3   226  PHE226      0.1736
     56  C         28.6770   -9.9870   92.3740 C.2   226  PHE226      0.2595
     57  O         29.1400   -9.4430   91.3710 O.2   226  PHE226     -0.2718
     58  CB        26.6430   -8.7080   93.0940 C.3   226  PHE226      0.0547
     59  CG        25.7530   -9.8150   92.5930 C.ar  226  PHE226     -0.0202
     60  CD1       25.3680  -10.8560   93.4280 C.ar  226  PHE226     -0.0042
     61  CD2       25.2910   -9.8070   91.2820 C.ar  226  PHE226     -0.0042
     62  CE1       24.5370  -11.8710   92.9620 C.ar  226  PHE226     -0.0003
     63  CE2       24.4610  -10.8160   90.8110 C.ar  226  PHE226     -0.0003
     64  CZ        24.0840  -11.8480   91.6500 C.ar  226  PHE226     -0.0000
     65  N         28.6740  -11.3070   92.5630 N.am  227  GLU227     -0.1979
     66  CA        29.2250  -12.2580   91.5990 C.3   227  GLU227      0.1602
     67  C         28.8000  -11.8920   90.1940 C.2   227  GLU227      0.2287
     68  O         29.6330  -11.7260   89.2980 O.2   227  GLU227     -0.2864
     69  CB        28.7560  -13.6850   91.9370 C.3   227  GLU227      0.0415
     70  CG        27.2800  -13.8020   92.3170 C.3   227  GLU227      0.1163
     71  CD        27.0500  -14.5370   93.6430 C.2   227  GLU227      0.3649
     72  OE1       27.7230  -14.2100   94.6470 O.co2 227  GLU227     -0.2457
     73  OE2       26.1830  -15.4350   93.6890 O.co2 227  GLU227     -0.2457
     74  N         24.4490   -6.6120   89.2790 N.3   230  CYS230     -0.1235
     75  CA        23.2260   -5.9700   89.7560 C.3   230  CYS230      0.1677
     76  C         22.7320   -4.9570   88.7290 C.2   230  CYS230      0.2270
     77  O         21.5740   -4.9990   88.3070 O.2   230  CYS230     -0.2867
     78  CB        23.4500   -5.2690   91.1020 C.3   230  CYS230      0.0956
     79  SG        23.9170   -6.3730   92.4660 S.3   230  CYS230     -0.0801
     80  N         20.9580   -6.6920   85.8840 N.3   233  GLN233     -0.1231
     81  CA        19.7480   -7.3290   86.3750 C.3   233  GLN233      0.1698
     82  C         18.6390   -6.3250   86.6670 C.2   233  GLN233      0.2592
     83  O         17.6830   -6.2080   85.8990 O.2   233  GLN233     -0.2718
     84  CB        20.0450   -8.1600   87.6270 C.3   233  GLN233      0.0381
     85  CG        21.0670   -9.2680   87.4090 C.3   233  GLN233      0.0905
     86  CD        21.0520  -10.3010   88.5190 C.2   233  GLN233      0.2608
     87  OE1       21.1230   -9.9590   89.6960 O.2   233  GLN233     -0.2717
     88  NE2       20.9630  -11.5750   88.1500 N.am  233  GLN233     -0.0878
     89  N         18.7690   -5.5940   87.7710 N.am  234  ASP234     -0.1974
     90  CA        17.7550   -4.6160   88.1710 C.3   234  ASP234      0.1709
     91  C         17.4710   -3.5550   87.1200 C.2   234  ASP234      0.2293
     92  O         16.4450   -2.8830   87.1740 O.2   234  ASP234     -0.2864
     93  CB        18.1560   -3.9600   89.4920 C.3   234  ASP234      0.1436
     94  CG        18.0240   -4.9060   90.6690 C.2   234  ASP234      0.3671
     95  OD1       17.8310   -6.1180   90.4290 O.co2 234  ASP234     -0.2456
     96  OD2       18.1160   -4.4470   91.8280 O.co2 234  ASP234     -0.2456
     97  N         25.8190   -5.9500   97.0450 N.3   242  LYS242     -0.1231
     98  CA        25.3140   -7.2420   96.6140 C.3   242  LYS242      0.1693
     99  C         23.9180   -6.7740   96.2890 C.2   242  LYS242      0.2592
    100  O         22.9000   -7.2310   96.8380 O.2   242  LYS242     -0.2718
    101  CB        25.2490   -8.2520   97.7350 C.3   242  LYS242      0.0285
    102  CG        25.0680   -9.6610   97.2290 C.3   242  LYS242      0.0035
    103  CD        26.3110  -10.1000   96.4920 C.3   242  LYS242      0.0206
    104  CE        26.4930  -11.5990   96.6350 C.3   242  LYS242      0.1093
    105  NZ        26.3410  -12.0490   98.0590 N.3   242  LYS242     -0.1314
    106  N         23.9390   -5.7590   95.4400 N.am  243  CYS243     -0.1956
    107  CA        22.7830   -5.0860   94.9100 C.3   243  CYS243      0.1843
    108  C         22.2640   -3.8890   95.6900 C.2   243  CYS243      0.2625
    109  O         22.8310   -2.8070   95.5300 O.2   243  CYS243     -0.2714
    110  CB        21.6960   -6.1000   94.5970 C.3   243  CYS243      0.0997
    111  SG        22.2040   -7.1810   93.2110 S.3   243  CYS243     -0.0797
    112  N         21.2400   -4.0160   96.5330 N.am  244  HIS244     -0.1973
    113  CA        20.7880   -2.7850   97.1800 C.3   244  HIS244      0.1656
    114  C         19.7190   -2.8400   98.2390 C.2   244  HIS244      0.2291
    115  O         18.9540   -3.7930   98.3340 O.2   244  HIS244     -0.2864
    116  CB        20.2670   -1.8400   96.1160 C.3   244  HIS244      0.0771
    117  CG        19.0890   -2.3910   95.3790 C.ar  244  HIS244      0.0820
    118  ND1       17.9650   -2.8570   96.0270 N.ar  244  HIS244     -0.2267
    119  CD2       18.8790   -2.5980   94.0570 C.ar  244  HIS244      0.1154
    120  CE1       17.1160   -3.3310   95.1340 C.ar  244  HIS244      0.1986
    121  NE2       17.6470   -3.1860   93.9320 N.ar  244  HIS244     -0.2212
    122  N         13.8180  -10.3070   90.6410 N.3   267  TYR267     -0.1227
    123  CA        14.3830   -9.4450   91.6700 C.3   267  TYR267      0.1736
    124  C         13.7450   -8.0610   91.6850 C.2   267  TYR267      0.2595
    125  O         13.4600   -7.4780   90.6330 O.2   267  TYR267     -0.2718
    126  CB        15.8900   -9.2890   91.4680 C.3   267  TYR267      0.0548
    127  CG        16.6940  -10.5540   91.6420 C.ar  267  TYR267     -0.0200
    128  CD1       16.5430  -11.3490   92.7750 C.ar  267  TYR267     -0.0009
    129  CD2       17.6590  -10.9190   90.7060 C.ar  267  TYR267     -0.0009
    130  CE1       17.3390  -12.4730   92.9740 C.ar  267  TYR267      0.0417
    131  CE2       18.4590  -12.0410   90.8960 C.ar  267  TYR267      0.0417
    132  CZ        18.2940  -12.8090   92.0310 C.ar  267  TYR267      0.1957
    133  OH        19.0950  -13.9050   92.2350 O.3   267  TYR267     -0.2866
    134  N         13.5310   -7.5460   92.8920 N.am  268  ASP268     -0.1974
    135  CA        12.9450   -6.2250   93.1040 C.3   268  ASP268      0.1709
    136  C         13.8710   -5.2000   92.4910 C.2   268  ASP268      0.2293
    137  O         14.9930   -5.0220   92.9580 O.2   268  ASP268     -0.2864
    138  CB        12.8310   -5.9600   94.5950 C.3   268  ASP268      0.1436
    139  CG        14.1620   -6.1250   95.3090 C.2   268  ASP268      0.3671
    140  OD1       14.7660   -7.2160   95.2380 O.co2 268  ASP268     -0.2456
    141  OD2       14.6090   -5.1530   95.9400 O.co2 268  ASP268     -0.2456
    142  N         10.3070   -3.8790   99.9030 N.3   279  ARG279     -0.1245
    143  CA        11.0960   -3.9470   98.6740 C.3   279  ARG279      0.1563
    144  C         10.2050   -3.9900   97.4550 C.2   279  ARG279      0.2260
    145  O         10.6870   -3.8390   96.3310 O.2   279  ARG279     -0.2867
    146  CB        11.9830   -5.1930   98.6660 C.3   279  ARG279      0.0307
    147  CG        11.2800   -6.4430   98.1810 C.3   279  ARG279      0.0489
    148  CD        12.2140   -7.6370   98.1390 C.3   279  ARG279      0.2205
    149  NE        12.4110   -8.2370   99.4540 N.pl3 279  ARG279     -0.0865
    150  CZ        13.1200   -9.3410   99.6630 C.cat 279  ARG279      0.5346
    151  NH1       13.6970   -9.9520   98.6370 N.pl3 279  ARG279      0.1354
    152  NH2       13.2450   -9.8400  100.8890 N.pl3 279  ARG279      0.1354
@<TRIPOS>BOND
     1    80    81    1
     2    83    82    2
     3    81    82    1
     4    81    84    1
     5    82    89   am
     6    91    92    2
     7    91    90    1
     8    85    84    1
     9    85    86    1
    10    89    90    1
    11    88    86   am
    12    90    93    1
    13    77    76    2
    14    86    87    2
    15    76    75    1
    16    74    75    1
    17    68    67    2
    18    93    94    1
    19    75    78    1
    20    67    66    1
    21    95    94   ar
    22   125   124    2
    23   122   123    1
    24    94    96   ar
    25   129   131   ar
    26   129   127   ar
    27    63    61   ar
    28    63    64   ar
    29   131   132   ar
    30    78    79    1
    31    61    59   ar
    32    57    56    2
    33   126   127    1
    34   126   123    1
    35    66    69    1
    36    66    65    1
    37   127   128   ar
    38    64    62   ar
    39   123   124    1
    40   124   134   am
    41    69    70    1
    42   132   133    1
    43   132   130   ar
    44    70    71    1
    45    56    65   am
    46    56    55    1
    47    79   111    1
    48   136   137    2
    49   136   135    1
    50    59    58    1
    51    59    60   ar
    52   128   130   ar
    53   134   135    1
    54    62    60   ar
    55    58    55    1
    56   135   138    1
    57   111   110    1
    58    55    54    1
    59    71    73   ar
    60    71    72   ar
    61   121   119   ar
    62   121   120   ar
    63   119   117   ar
    64   138   139    1
    65   110   107    1
    66   107   106    1
    67   107   108    1
    68   120   118   ar
    69   140   139   ar
    70   139   141   ar
    71   117   118   ar
    72   117   116    1
    73   106    99   am
    74   109   108    2
    75   108   112   am
    76   116   113    1
    77    99    98    1
    78    99   100    2
    79   145   144    2
    80   103   104    1
    81   103   102    1
    82   112   113    1
    83    98    97    1
    84    98   101    1
    85   104   105    1
    86   113   114    1
    87   102   101    1
    88   144   143    1
    89   148   147    1
    90   148   149    1
    91   147   146    1
    92   114   115    2
    93   151   150    1
    94   146   143    1
    95   143   142    1
    96   149   150    2
    97    39    38    2
    98   150   152    1
    99    44    42   ar
   100    44    46   ar
   101    42    41   ar
   102    53    51    1
   103    11     9   ar
   104    11    10   ar
   105    19    17   ar
   106    38    37    1
   107    38    47   am
   108    40    41    1
   109    40    37    1
   110    41    43   ar
   111    46    45   ar
   112    48    51    1
   113    48    49    1
   114    48    47    1
   115     9     7   ar
   116    10     8   ar
   117    50    49    2
   118    51    52    1
   119    37    36    1
   120    43    45   ar
   121    17    16    1
   122    17    18   ar
   123     7     6   ar
   124     8     6   ar
   125    16    13    1
   126     6     5    1
   127    34    33   ar
   128     5     2    1
   129    31    30    2
   130    33    32    1
   131    33    35   ar
   132    13    14    1
   133    13    12    1
   134    29    32    1
   135    29    30    1
   136    29    28    1
   137    15    14    2
   138    24    25    1
   139    24    21    1
   140    14    20   am
   141    25    26   ar
   142    25    27   ar
   143     2     3    1
   144     2     1    1
   145    20    21    1
   146    21    22    1
   147     4     3    2
   148    23    22    2
