@<TRIPOS>MOLECULE
tmp/1n89A00.pdb
 152 147 0 0 0
SMALL
GASTEIGER

@<TRIPOS>ATOM
      1  N          7.7800    5.5330   -4.5260 N.3     4  ALA4       -0.1245
      2  CA         6.6200    6.3400   -4.8840 C.3     4  ALA4        0.1562
      3  C          6.2320    6.1170   -6.3420 C.2     4  ALA4        0.2260
      4  O          5.7440    7.0270   -7.0120 O.2     4  ALA4       -0.2867
      5  CB         6.9040    7.8130   -4.6310 C.3     4  ALA4        0.0290
      6  N          4.1180    1.4800   -6.4140 N.3     7  LEU7       -0.1231
      7  CA         2.7800    1.3200   -5.8620 C.3     7  LEU7        0.1693
      8  C          1.7540    2.1260   -6.6550 C.2     7  LEU7        0.2591
      9  O          0.5560    1.8510   -6.5950 O.2     7  LEU7       -0.2718
     10  CB         2.7640    1.7530   -4.3930 C.3     7  LEU7        0.0284
     11  CG         4.1100    1.6450   -3.6670 C.3     7  LEU7        0.0019
     12  CD1        4.1270    2.5440   -2.4400 C.3     7  LEU7        0.0001
     13  CD2        4.3930    0.1990   -3.2790 C.3     7  LEU7        0.0001
     14  N          2.2290    3.1260   -7.3980 N.am    8  ALA8       -0.1980
     15  CA         1.3500    3.9710   -8.1980 C.3     8  ALA8        0.1597
     16  C          0.3710    3.1400   -9.0170 C.2     8  ALA8        0.2287
     17  O         -0.8170    3.4510   -9.0950 O.2     8  ALA8       -0.2864
     18  CB         2.1700    4.8730   -9.1080 C.3     8  ALA8        0.0319
     19  N         -2.3850    2.4010   -6.9500 N.3    11  ALA11      -0.1245
     20  CA        -3.1580    3.5800   -6.5640 C.3    11  ALA11       0.1562
     21  C         -4.5180    3.5990   -7.2460 C.2    11  ALA11       0.2260
     22  O         -5.4960    4.1100   -6.7000 O.2    11  ALA11      -0.2867
     23  CB        -2.3840    4.8480   -6.8920 C.3    11  ALA11       0.0290
     24  N          5.2550   -3.7410   -3.3910 N.3    28  LEU28      -0.1245
     25  CA         5.5760   -3.2820   -2.0450 C.3    28  LEU28       0.1561
     26  C          6.7640   -4.0400   -1.4700 C.2    28  LEU28       0.2260
     27  O          7.6010   -3.4700   -0.7700 O.2    28  LEU28      -0.2867
     28  CB         4.3640   -3.4340   -1.1270 C.3    28  LEU28       0.0270
     29  CG         3.9740   -4.8750   -0.8240 C.3    28  LEU28       0.0019
     30  CD1        4.7080   -5.3800    0.4080 C.3    28  LEU28       0.0001
     31  CD2        2.4680   -4.9960   -0.6430 C.3    28  LEU28       0.0001
     32  N          7.6490    1.6120    2.7670 N.3    35  PHE35      -0.1241
     33  CA         6.2880    1.0900    2.7840 C.3    35  PHE35       0.1605
     34  C          5.8490    0.7930    4.2130 C.2    35  PHE35       0.2264
     35  O          4.6940    1.0040    4.5820 O.2    35  PHE35      -0.2867
     36  CB         6.2260   -0.1690    1.9040 C.3    35  PHE35       0.0534
     37  CG         5.2570   -1.2330    2.3520 C.ar   35  PHE35      -0.0203
     38  CD1        3.9740   -0.9090    2.7640 C.ar   35  PHE35      -0.0042
     39  CD2        5.6390   -2.5660    2.3510 C.ar   35  PHE35      -0.0042
     40  CE1        3.0920   -1.8950    3.1670 C.ar   35  PHE35      -0.0003
     41  CE2        4.7630   -3.5550    2.7520 C.ar   35  PHE35      -0.0003
     42  CZ         3.4880   -3.2200    3.1600 C.ar   35  PHE35      -0.0000
     43  N          5.8030    4.1220    6.1050 N.3    38  TYR38      -0.1241
     44  CA         4.7650    4.9370    5.4830 C.3    38  TYR38       0.1605
     45  C          3.4910    4.9230    6.3230 C.2    38  TYR38       0.2264
     46  O          2.6610    5.8270    6.2270 O.2    38  TYR38      -0.2867
     47  CB         4.4680    4.4290    4.0690 C.3    38  TYR38       0.0534
     48  CG         4.9030    5.3800    2.9780 C.ar   38  TYR38      -0.0201
     49  CD1        4.4500    6.6930    2.9520 C.ar   38  TYR38      -0.0009
     50  CD2        5.7680    4.9650    1.9720 C.ar   38  TYR38      -0.0009
     51  CE1        4.8450    7.5650    1.9550 C.ar   38  TYR38       0.0417
     52  CE2        6.1680    5.8310    0.9730 C.ar   38  TYR38       0.0417
     53  CZ         5.7040    7.1290    0.9690 C.ar   38  TYR38       0.1957
     54  OH         6.1000    7.9950   -0.0250 O.3    38  TYR38      -0.2866
     55  N         -0.3460   10.5020    3.0860 N.3    44  TYR44      -0.1241
     56  CA        -0.7620    9.3030    2.3660 C.3    44  TYR44       0.1605
     57  C         -1.6460    8.4130    3.2390 C.2    44  TYR44       0.2264
     58  O         -1.8680    7.2440    2.9230 O.2    44  TYR44      -0.2867
     59  CB         0.4640    8.5170    1.8990 C.3    44  TYR44       0.0534
     60  CG         1.2500    9.2100    0.8090 C.ar   44  TYR44      -0.0201
     61  CD1        2.0490   10.3100    1.0940 C.ar   44  TYR44      -0.0009
     62  CD2        1.1920    8.7650   -0.5060 C.ar   44  TYR44      -0.0009
     63  CE1        2.7680   10.9460    0.1010 C.ar   44  TYR44       0.0417
     64  CE2        1.9080    9.3970   -1.5050 C.ar   44  TYR44       0.0417
     65  CZ         2.6950   10.4860   -1.1960 C.ar   44  TYR44       0.1957
     66  OH         3.4100   11.1180   -2.1880 O.3    44  TYR44      -0.2866
     67  N         -4.2980    6.5340    1.5760 N.3    47  TYR47      -0.1227
     68  CA        -3.8790    5.3900    0.7780 C.3    47  TYR47       0.1736
     69  C         -3.8470    4.1200    1.6190 C.2    47  TYR47       0.2595
     70  O         -4.4200    3.0980    1.2440 O.2    47  TYR47      -0.2718
     71  CB        -2.5030    5.6420    0.1850 C.3    47  TYR47       0.0548
     72  CG        -2.2310    4.8700   -1.0840 C.ar   47  TYR47      -0.0200
     73  CD1       -2.5670    5.3970   -2.3230 C.ar   47  TYR47      -0.0009
     74  CD2       -1.6310    3.6190   -1.0400 C.ar   47  TYR47      -0.0009
     75  CE1       -2.3130    4.6960   -3.4860 C.ar   47  TYR47       0.0417
     76  CE2       -1.3740    2.9120   -2.1980 C.ar   47  TYR47       0.0417
     77  CZ        -1.7160    3.4550   -3.4180 C.ar   47  TYR47       0.1957
     78  OH        -1.4580    2.7550   -4.5740 O.3    47  TYR47      -0.2866
     79  N         -3.1620    4.1920    2.7550 N.am   48  ILE48      -0.1966
     80  CA        -3.0400    3.0510    3.6500 C.3    48  ILE48       0.1727
     81  C         -4.3670    2.7260    4.3270 C.2    48  ILE48       0.2616
     82  O         -4.7410    1.5590    4.4480 O.2    48  ILE48      -0.2715
     83  CB        -1.9700    3.2980    4.7300 C.3    48  ILE48       0.0290
     84  CG1       -0.6630    3.7570    4.0800 C.3    48  ILE48       0.0022
     85  CG2       -1.7490    2.0390    5.5570 C.3    48  ILE48       0.0023
     86  CD1        0.4580    3.9850    5.0700 C.3    48  ILE48       0.0001
     87  N         -5.0770    3.7600    4.7740 N.am   49  ARG49      -0.1977
     88  CA        -6.3610    3.5700    5.4450 C.3    49  ARG49       0.1597
     89  C         -7.5010    3.3540    4.4550 C.2    49  ARG49       0.2287
     90  O         -8.6560    3.6640    4.7470 O.2    49  ARG49      -0.2864
     91  CB        -6.6730    4.7600    6.3540 C.3    49  ARG49       0.0334
     92  CG        -5.7300    4.8850    7.5390 C.3    49  ARG49       0.0492
     93  CD        -5.6310    6.3230    8.0230 C.3    49  ARG49       0.2205
     94  NE        -5.1070    6.4080    9.3840 N.pl3  49  ARG49      -0.0865
     95  CZ        -4.5900    7.5160    9.9120 C.cat  49  ARG49       0.5346
     96  NH1       -4.5270    8.6320    9.1970 N.pl3  49  ARG49       0.1354
     97  NH2       -4.1380    7.5070   11.1590 N.pl3  49  ARG49       0.1354
     98  N         -7.2820   -1.3460   -0.0360 N.3    53  ALA53      -0.1231
     99  CA        -5.8470   -1.4000    0.1840 C.3    53  ALA53       0.1694
    100  C         -5.4600   -2.5990    1.0320 C.2    53  ALA53       0.2591
    101  O         -4.6740   -3.4490    0.6130 O.2    53  ALA53      -0.2718
    102  CB        -5.3620   -0.1140    0.8360 C.3    53  ALA53       0.0304
    103  N         -6.0150   -2.6490    2.2280 N.am   54  ARG54      -0.1980
    104  CA        -5.7370   -3.7320    3.1610 C.3    54  ARG54       0.1597
    105  C         -6.0910   -5.0810    2.5540 C.2    54  ARG54       0.2287
    106  O         -5.4550   -6.0940    2.8460 O.2    54  ARG54      -0.2864
    107  CB        -6.5100   -3.5320    4.4660 C.3    54  ARG54       0.0334
    108  CG        -6.4460   -2.1160    5.0060 C.3    54  ARG54       0.0492
    109  CD        -7.8170   -1.6250    5.4350 C.3    54  ARG54       0.2205
    110  NE        -7.7260   -0.4010    6.2180 N.pl3  54  ARG54      -0.0865
    111  CZ        -8.7730    0.3490    6.5530 C.cat  54  ARG54       0.5346
    112  NH1       -9.9960    0.0010    6.1720 N.pl3  54  ARG54       0.1354
    113  NH2       -8.5970    1.4500    7.2700 N.pl3  54  ARG54       0.1354
    114  N         -3.1970   -6.1930    0.0720 N.3    57  LEU57      -0.1231
    115  CA        -2.0490   -6.6630    0.8220 C.3    57  LEU57       0.1693
    116  C         -2.3710   -7.9600    1.5440 C.2    57  LEU57       0.2592
    117  O         -1.5840   -8.9070    1.5340 O.2    57  LEU57      -0.2718
    118  CB        -1.6010   -5.6000    1.8170 C.3    57  LEU57       0.0284
    119  CG        -0.4210   -4.7430    1.3610 C.3    57  LEU57       0.0019
    120  CD1       -0.8590   -3.3050    1.1270 C.3    57  LEU57       0.0001
    121  CD2        0.7110   -4.8000    2.3770 C.3    57  LEU57       0.0001
    122  N         -3.5380   -7.9920    2.1660 N.am   58  THR58      -0.1953
    123  CA        -3.9800   -9.1650    2.8950 C.3    58  THR58       0.1897
    124  C         -4.1570  -10.3450    1.9520 C.2    58  THR58       0.2313
    125  O         -3.7630  -11.4670    2.2700 O.2    58  THR58      -0.2863
    126  CB        -5.2850   -8.8790    3.6410 C.3    58  THR58       0.1794
    127  OG1       -5.1080   -7.8280    4.5750 O.3    58  THR58      -0.2208
    128  CG2       -5.8200  -10.0770    4.3960 C.3    58  THR58       0.0378
    129  N          2.2660   -6.4560    6.5950 N.3    64  VAL64      -0.1231
    130  CA         1.2990   -5.4390    6.9590 C.3    64  VAL64       0.1678
    131  C          1.9880   -4.2710    7.6670 C.2    64  VAL64       0.2434
    132  O          2.8620   -4.4810    8.5080 O.2    64  VAL64      -0.2733
    133  CB         0.1920   -6.0190    7.8650 C.3    64  VAL64       0.0265
    134  CG1        0.7250   -6.3120    9.2610 C.3    64  VAL64       0.0020
    135  CG2       -1.0000   -5.0760    7.9270 C.3    64  VAL64       0.0020
    136  N          1.6110   -3.0230    7.3380 N.am   65  PRO65      -0.2718
    137  CA         2.2070   -1.8320    7.9530 C.3    65  PRO65       0.1535
    138  C          2.0670   -1.8350    9.4720 C.2    65  PRO65       0.2598
    139  O          1.8490   -2.8810   10.0830 O.2    65  PRO65      -0.2715
    140  CB         1.4170   -0.6670    7.3380 C.3    65  PRO65       0.0310
    141  CG         0.1830   -1.2870    6.7840 C.3    65  PRO65       0.0237
    142  CD         0.5830   -2.6650    6.3490 C.3    65  PRO65       0.0939
    143  N          2.1990   -0.6590   10.0750 N.am   66  HIS66      -0.1974
    144  CA         2.0940   -0.5250   11.5230 C.3    66  HIS66       0.1656
    145  C          3.1860   -1.3290   12.2210 C.2    66  HIS66       0.2291
    146  O          2.9870   -1.8390   13.3240 O.2    66  HIS66      -0.2864
    147  CB         0.7160   -0.9850   12.0030 C.3    66  HIS66       0.0771
    148  CG        -0.3990   -0.0850   11.5680 C.ar   66  HIS66       0.0820
    149  ND1       -1.2630   -0.3990   10.5410 N.ar   66  HIS66      -0.2267
    150  CD2       -0.7900    1.1270   12.0270 C.ar   66  HIS66       0.1154
    151  CE1       -2.1340    0.5810   10.3880 C.ar   66  HIS66       0.1986
    152  NE2       -1.8690    1.5180   11.2770 N.ar   66  HIS66      -0.2212
@<TRIPOS>BOND
     1    18    15    1
     2    17    16    2
     3    16    15    1
     4    15    14    1
     5    14     8   am
     6    21    22    2
     7    21    20    1
     8     4     3    2
     9    19    20    1
    10    23    20    1
    11     8     9    2
    12     8     7    1
    13     6     7    1
    14     3     2    1
    15     7    10    1
    16     2     5    1
    17     2     1    1
    18    78    77    1
    19    10    11    1
    20    11    13    1
    21    11    12    1
    22    75    77   ar
    23    75    73   ar
    24    77    76   ar
    25    24    25    1
    26    73    72   ar
    27    76    74   ar
    28    66    65    1
    29    25    26    1
    30    25    28    1
    31    64    65   ar
    32    64    62   ar
    33    26    27    2
    34    65    63   ar
    35    28    29    1
    36    72    74   ar
    37    72    71    1
    38    29    31    1
    39    29    30    1
    40    62    60   ar
    41    98    99    1
    42    54    53    1
    43   114   115    1
    44    63    61   ar
    45    99   102    1
    46    99   100    1
    47    71    68    1
    48   101   100    2
    49    68    67    1
    50    68    69    1
    51    60    61   ar
    52    60    59    1
    53   115   116    1
    54   115   118    1
    55    53    52   ar
    56    53    51   ar
    57    52    50   ar
    58   100   103   am
    59   120   119    1
    60    70    69    2
    61   119   118    1
    62   119   121    1
    63   117   116    2
    64   116   122   am
    65    69    79   am
    66    59    56    1
    67    36    37    1
    68    36    33    1
    69   124   125    2
    70   124   123    1
    71    51    49   ar
    72    50    48   ar
    73   122   123    1
    74   103   104    1
    75    39    37   ar
    76    39    41   ar
    77    37    38   ar
    78    56    55    1
    79    56    57    1
    80   105   106    2
    81   105   104    1
    82    41    42   ar
    83    79    80    1
    84    38    40   ar
    85    32    33    1
    86    33    34    1
    87   123   126    1
    88    58    57    2
    89    49    48   ar
    90    48    47    1
    91    42    40   ar
    92   104   107    1
    93   126   128    1
    94   126   127    1
    95    80    81    1
    96    80    83    1
    97    47    44    1
    98    84    83    1
    99    84    86    1
   100    34    35    2
   101    81    82    2
   102    81    87   am
   103    89    90    2
   104    89    88    1
   105   107   108    1
   106    83    85    1
   107    87    88    1
   108   108   109    1
   109   109   110    1
   110    88    91    1
   111    44    43    1
   112    44    45    1
   113   112   111    1
   114   110   111    2
   115    46    45    2
   116   142   141    1
   117   142   136    1
   118    91    92    1
   119   111   113    1
   120   129   130    1
   121   141   140    1
   122   130   131    1
   123   130   133    1
   124   140   137    1
   125   136   131   am
   126   136   137    1
   127    92    93    1
   128   131   132    2
   129   133   135    1
   130   133   134    1
   131   137   138    1
   132    93    94    1
   133    96    95    1
   134    94    95    2
   135   138   143   am
   136   138   139    2
   137    95    97    1
   138   143   144    1
   139   151   149   ar
   140   151   152   ar
   141   149   148   ar
   142   152   150   ar
   143   144   147    1
   144   144   145    1
   145   148   147    1
   146   148   150   ar
   147   145   146    2
