@<TRIPOS>MOLECULE
tmp/1n8pC00.pdb
 123 114 0 0 0
SMALL
GASTEIGER

@<TRIPOS>ATOM
      1  N         81.9020    1.1220   46.7740 N.3    78  SER78      -0.1202
      2  CA        81.7170    0.0240   47.7190 C.3    78  SER78       0.2020
      3  C         82.3160    0.3790   49.0540 C.2    78  SER78       0.2619
      4  O         82.6530    1.5350   49.2960 O.2    78  SER78      -0.2717
      5  CB        82.3700   -1.2570   47.1830 C.3    78  SER78       0.2103
      6  OG        83.6300   -0.9730   46.5940 O.3    78  SER78      -0.2182
      7  N         82.3990   -0.6150   49.9310 N.am   79  GLY79      -0.1942
      8  CA        83.0340   -0.4090   51.2180 C.3    79  GLY79       0.2014
      9  C         84.5230   -0.4690   50.9220 C.2    79  GLY79       0.2639
     10  O         85.3300    0.2670   51.4900 O.2    79  GLY79      -0.2714
     11  N         84.8820   -1.3460   49.9910 N.am   80  SER80      -0.1949
     12  CA        86.2630   -1.5030   49.6090 C.3    80  SER80       0.1924
     13  C         86.8380   -0.2330   49.0040 C.2    80  SER80       0.2314
     14  O         87.9680    0.1430   49.3150 O.2    80  SER80      -0.2863
     15  CB        86.4020   -2.6870   48.6530 C.3    80  SER80       0.2116
     16  OG        85.9990   -3.8810   49.3140 O.3    80  SER80      -0.2180
     17  N         88.1770   -8.4290   57.7930 N.3   103  TYR103     -0.1241
     18  CA        87.8000   -8.9220   56.4670 C.3   103  TYR103      0.1605
     19  C         89.1220   -8.9070   55.6970 C.2   103  TYR103      0.2264
     20  O         90.0330   -8.1590   56.0640 O.2   103  TYR103     -0.2867
     21  CB        86.8260   -7.9350   55.7950 C.3   103  TYR103      0.0534
     22  CG        85.4490   -8.4800   55.4200 C.ar  103  TYR103     -0.0201
     23  CD1       84.5110   -8.8120   56.4020 C.ar  103  TYR103     -0.0009
     24  CD2       85.0810   -8.6440   54.0780 C.ar  103  TYR103     -0.0009
     25  CE1       83.2330   -9.2950   56.0560 C.ar  103  TYR103      0.0417
     26  CE2       83.8210   -9.1220   53.7280 C.ar  103  TYR103      0.0417
     27  CZ        82.9010   -9.4440   54.7200 C.ar  103  TYR103      0.1957
     28  OH        81.6400   -9.8940   54.3760 O.3   103  TYR103     -0.2866
     29  N         89.6330   -7.5280   53.3540 N.3   105  GLY105     -0.1225
     30  CA        89.6340   -6.1880   52.8000 C.3   105  GLY105      0.1811
     31  C         90.9160   -5.4390   53.0840 C.2   105  GLY105      0.2280
     32  O         91.5960   -5.0170   52.1350 O.2   105  GLY105     -0.2866
     33  N         93.7950   -6.9790   51.4190 N.3   108  ARG108     -0.1245
     34  CA        93.7520   -6.5130   50.0370 C.3   108  ARG108      0.1563
     35  C         94.1100   -5.0330   49.8810 C.2   108  ARG108      0.2260
     36  O         95.2700   -4.6790   49.5820 O.2   108  ARG108     -0.2867
     37  CB        92.3580   -6.7540   49.4520 C.3   108  ARG108      0.0307
     38  CG        91.9130   -8.2130   49.4420 C.3   108  ARG108      0.0489
     39  CD        90.6120   -8.3660   48.6650 C.3   108  ARG108      0.2205
     40  NE        89.6610   -7.3360   49.0630 N.pl3 108  ARG108     -0.0865
     41  CZ        88.4380   -7.2000   48.5650 C.cat 108  ARG108      0.5346
     42  NH1       88.0070   -8.0370   47.6340 N.pl3 108  ARG108      0.1354
     43  NH2       87.6350   -6.2380   49.0110 N.pl3 108  ARG108      0.1354
     44  N         87.6980   -2.4760   63.7750 N.3   145  GLU145     -0.1245
     45  CA        86.4730   -3.0720   63.2610 C.3   145  GLU145      0.1567
     46  C         85.7980   -3.5230   64.5570 C.2   145  GLU145      0.2260
     47  O         85.8550   -4.7000   64.9280 O.2   145  GLU145     -0.2867
     48  CB        86.8250   -4.2760   62.3920 C.3   145  GLU145      0.0388
     49  CG        85.6900   -4.8870   61.6000 C.3   145  GLU145      0.1160
     50  CD        86.1570   -6.1130   60.8510 C.2   145  GLU145      0.3649
     51  OE1       86.4680   -7.1230   61.5250 O.co2 145  GLU145     -0.2457
     52  OE2       86.2320   -6.0580   59.5970 O.co2 145  GLU145     -0.2457
     53  N         85.1350    0.7310   61.7240 N.3   178  ASP178     -0.1239
     54  CA        84.2350    0.0820   60.7870 C.3   178  ASP178      0.1674
     55  C         83.0090   -0.1960   61.6140 C.2   178  ASP178      0.2266
     56  O         83.0570   -1.0390   62.4930 O.2   178  ASP178     -0.2867
     57  CB        84.8220   -1.2430   60.3370 C.3   178  ASP178      0.1410
     58  CG        84.0360   -1.8790   59.2310 C.2   178  ASP178      0.3668
     59  OD1       82.7740   -1.9360   59.2930 O.co2 178  ASP178     -0.2456
     60  OD2       84.7100   -2.3350   58.2980 O.co2 178  ASP178     -0.2456
     61  N         79.9100   -1.1840   60.2810 N.3   180  THR180     -0.1203
     62  CA        78.9700   -1.9160   59.4100 C.3   180  THR180      0.1994
     63  C         78.0060   -2.8940   60.0990 C.2   180  THR180      0.2617
     64  O         76.7950   -2.8820   59.8330 O.2   180  THR180     -0.2717
     65  CB        79.7590   -2.6940   58.2970 C.3   180  THR180      0.1784
     66  OG1       80.2620   -1.7670   57.3110 O.3   180  THR180     -0.2211
     67  CG2       78.8780   -3.7500   57.6210 C.3   180  THR180      0.0376
     68  N         78.5540   -3.7260   60.9860 N.am  181  PHE181     -0.1975
     69  CA        77.8090   -4.7550   61.7210 C.3   181  PHE181      0.1639
     70  C         76.7970   -4.2690   62.7560 C.2   181  PHE181      0.2290
     71  O         75.7870   -4.9390   63.0520 O.2   181  PHE181     -0.2864
     72  CB        78.8050   -5.6920   62.3980 C.3   181  PHE181      0.0560
     73  CG        79.3540   -6.7590   61.4890 C.ar  181  PHE181     -0.0200
     74  CD1       79.4340   -6.5540   60.1190 C.ar  181  PHE181     -0.0042
     75  CD2       79.8390   -7.9570   62.0180 C.ar  181  PHE181     -0.0042
     76  CE1       79.9900   -7.5180   59.2880 C.ar  181  PHE181     -0.0003
     77  CE2       80.3980   -8.9270   61.1970 C.ar  181  PHE181     -0.0003
     78  CZ        80.4750   -8.7080   59.8310 C.ar  181  PHE181     -0.0000
     79  N         79.9600   -0.5520   55.1230 N.3   200  SER200     -0.1217
     80  CA        79.8060   -1.2580   53.8790 C.3   200  SER200      0.1889
     81  C         78.2830   -1.1160   53.7620 C.2   200  SER200      0.2288
     82  O         77.5320   -1.8820   54.3820 O.2   200  SER200     -0.2866
     83  CB        80.1810   -2.7190   54.0490 C.3   200  SER200      0.2089
     84  OG        79.7230   -3.4470   52.9250 O.3   200  SER200     -0.2183
     85  N         76.2420   -2.0320   51.7150 N.3   202  THR202     -0.1203
     86  CA        75.5850   -3.2230   51.1900 C.3   202  THR202      0.1994
     87  C         74.7900   -3.9860   52.2340 C.2   202  THR202      0.2617
     88  O         73.7310   -4.5140   51.9470 O.2   202  THR202     -0.2717
     89  CB        76.5770   -4.2350   50.6740 C.3   202  THR202      0.1784
     90  OG1       77.5600   -3.5930   49.8510 O.3   202  THR202     -0.2211
     91  CG2       75.8490   -5.2790   49.8990 C.3   202  THR202      0.0376
     92  N         75.3180   -4.0560   53.4460 N.am  203  LYS203     -0.1979
     93  CA        74.6680   -4.7820   54.5290 C.3   203  LYS203      0.1596
     94  C         73.4270   -4.1290   55.1350 C.2   203  LYS203      0.2287
     95  O         72.3940   -4.0780   54.4920 O.2   203  LYS203     -0.2864
     96  CB        75.6940   -5.0870   55.6200 C.3   203  LYS203      0.0298
     97  CG        76.6170   -6.2340   55.2680 C.3   203  LYS203      0.0038
     98  CD        77.4810   -5.8910   54.0880 C.3   203  LYS203      0.0206
     99  CE        78.2470   -7.0910   53.5920 C.3   203  LYS203      0.1093
    100  NZ        79.5720   -6.6290   53.1720 N.3   203  LYS203     -0.1314
    101  N         75.4560   -2.4540   46.3070 N.3   212  VAL212     -0.1231
    102  CA        76.8120   -2.5190   46.7910 C.3   212  VAL212      0.1692
    103  C         77.1890   -1.0510   46.8390 C.2   212  VAL212      0.2591
    104  O         77.4120   -0.4200   45.8050 O.2   212  VAL212     -0.2718
    105  CB        77.7660   -3.2740   45.8150 C.3   212  VAL212      0.0266
    106  CG1       79.2060   -3.0210   46.2210 C.3   212  VAL212      0.0020
    107  CG2       77.5040   -4.7710   45.8640 C.3   212  VAL212      0.0020
    108  N         77.2100   -0.4960   48.0400 N.am  213  LEU213     -0.1980
    109  CA        77.5540    0.9020   48.2300 C.3   213  LEU213      0.1596
    110  C         78.2890    1.0370   49.5330 C.2   213  LEU213      0.2287
    111  O         78.0760    0.2380   50.4390 O.2   213  LEU213     -0.2864
    112  CB        76.2970    1.7720   48.2500 C.3   213  LEU213      0.0297
    113  CG        76.5130    3.2750   48.4660 C.3   213  LEU213      0.0022
    114  CD1       75.5060    4.1130   47.6960 C.3   213  LEU213      0.0001
    115  CD2       76.4030    3.5600   49.9430 C.3   213  LEU213      0.0001
    116  N         75.7510  -10.5740   54.7860 N.3   335  LEU335     -0.1245
    117  CA        74.9710  -10.5340   56.0170 C.3   335  LEU335      0.1561
    118  C         74.2470   -9.1920   56.1840 C.2   335  LEU335      0.2260
    119  O         74.2150   -8.3490   55.2960 O.2   335  LEU335     -0.2867
    120  CB        75.9240  -10.7040   57.1810 C.3   335  LEU335      0.0270
    121  CG        76.9060   -9.5330   57.0860 C.3   335  LEU335      0.0019
    122  CD1       76.6550   -8.5500   58.1990 C.3   335  LEU335      0.0001
    123  CD2       78.3080  -10.0390   57.1390 C.3   335  LEU335      0.0001
@<TRIPOS>BOND
     1   104   103    2
     2   105   107    1
     3   105   106    1
     4   105   102    1
     5   101   102    1
     6     6     5    1
     7     1     2    1
     8   102   103    1
     9   103   108   am
    10     5     2    1
    11    42    41    1
    12   114   113    1
    13     2     3    1
    14   108   109    1
    15   109   112    1
    16   109   110    1
    17   112   113    1
    18   113   115    1
    19    41    43    1
    20    41    40    2
    21    15    16    1
    22    15    12    1
    23    39    40    1
    24    39    38    1
    25    13    14    2
    26    13    12    1
    27     3     4    2
    28     3     7   am
    29    38    37    1
    30    37    34    1
    31   110   111    2
    32    36    35    2
    33    12    11    1
    34    90    89    1
    35    35    34    1
    36    91    89    1
    37     7     8    1
    38    11     9   am
    39    34    33    1
    40    89    86    1
    41     9     8    1
    42     9    10    2
    43    86    85    1
    44    86    87    1
    45    88    87    2
    46    32    31    2
    47    87    92   am
    48    30    31    1
    49    30    29    1
    50    84    83    1
    51   100    99    1
    52    92    93    1
    53    99    98    1
    54    26    24   ar
    55    26    27   ar
    56    81    80    1
    57    81    82    2
    58    80    83    1
    59    80    79    1
    60    24    22   ar
    61    98    97    1
    62    28    27    1
    63    95    94    2
    64    93    94    1
    65    93    96    1
    66    27    25   ar
    67   116   117    1
    68    97    96    1
    69   119   118    2
    70    22    21    1
    71    22    23   ar
    72    19    20    2
    73    19    18    1
    74    21    18    1
    75   117   118    1
    76   117   120    1
    77    25    23   ar
    78    18    17    1
    79   121   123    1
    80   121   120    1
    81   121   122    1
    82    66    65    1
    83    67    65    1
    84    65    62    1
    85    60    58   ar
    86    58    59   ar
    87    58    57    1
    88    76    78   ar
    89    76    74   ar
    90    62    63    1
    91    62    61    1
    92    52    50   ar
    93    78    77   ar
    94    64    63    2
    95    63    68   am
    96    74    73   ar
    97    57    54    1
    98    54    55    1
    99    54    53    1
   100    50    51   ar
   101    50    49    1
   102    68    69    1
   103    77    75   ar
   104    73    75   ar
   105    73    72    1
   106    49    48    1
   107    55    56    2
   108    69    72    1
   109    69    70    1
   110    48    45    1
   111    70    71    2
   112    45    44    1
   113    45    46    1
   114    46    47    2
