@<TRIPOS>MOLECULE
tmp/1n8qA00.pdb
 110 104 0 0 0
SMALL
GASTEIGER

@<TRIPOS>ATOM
      1  N         23.0230   -4.5950   24.6590 N.3   506  GLN506     -0.1231
      2  CA        22.4290   -3.4780   23.9650 C.3   506  GLN506      0.1698
      3  C         23.1380   -2.1700   24.2810 C.2   506  GLN506      0.2592
      4  O         23.4660   -1.3840   23.3640 O.2   506  GLN506     -0.2718
      5  CB        20.9410   -3.3630   24.3020 C.3   506  GLN506      0.0381
      6  CG        20.2130   -2.3590   23.4360 C.3   506  GLN506      0.0905
      7  CD        20.1860   -2.8210   21.9850 C.2   506  GLN506      0.2608
      8  OE1       20.2970   -2.0170   21.0950 O.2   506  GLN506     -0.2717
      9  NE2       20.0340   -4.1300   21.7520 N.am  506  GLN506     -0.0878
     10  N         23.3220   -1.9420   25.5740 N.am  507  LEU507     -0.1980
     11  CA        23.7940   -0.6650   26.0650 C.3   507  LEU507      0.1596
     12  C         25.3150   -0.5420   25.9820 C.2   507  LEU507      0.2287
     13  O         25.8470    0.5520   25.8450 O.2   507  LEU507     -0.2864
     14  CB        23.3390   -0.4980   27.5130 C.3   507  LEU507      0.0297
     15  CG        21.9450    0.1450   27.7410 C.3   507  LEU507      0.0022
     16  CD1       21.9480    1.5040   27.1620 C.3   507  LEU507      0.0001
     17  CD2       20.7580   -0.6630   27.1580 C.3   507  LEU507      0.0001
     18  N         26.9960   -2.9830   22.0800 N.3   510  HIS510     -0.1226
     19  CA        26.5480   -2.3320   20.8820 C.3   510  HIS510      0.1752
     20  C         26.6280   -0.7750   21.0240 C.2   510  HIS510      0.2596
     21  O         27.5340   -0.1660   20.4540 O.2   510  HIS510     -0.2718
     22  CB        25.1160   -2.8110   20.5260 C.3   510  HIS510      0.0759
     23  CG        24.5660   -2.2130   19.2580 C.ar  510  HIS510      0.0818
     24  ND1       23.3570   -1.5630   19.2180 N.ar  510  HIS510     -0.2268
     25  CD2       25.0610   -2.1610   17.9910 C.ar  510  HIS510      0.1154
     26  CE1       23.1280   -1.1500   17.9840 C.ar  510  HIS510      0.1986
     27  NE2       24.1560   -1.4680   17.2190 N.ar  510  HIS510     -0.2212
     28  N         25.7320   -0.1650   21.8060 N.am  511  TRP511     -0.1976
     29  CA        25.6740    1.3010   21.9160 C.3   511  TRP511      0.1640
     30  C         26.9970    1.9240   22.3960 C.2   511  TRP511      0.2290
     31  O         27.6090    2.6640   21.6420 O.2   511  TRP511     -0.2864
     32  CB        24.5360    1.7760   22.8390 C.3   511  TRP511      0.0576
     33  CG        24.6210    3.2640   23.1120 C.ar  511  TRP511      0.0006
     34  CD1       24.9800    3.8670   24.2770 C.ar  511  TRP511      0.0946
     35  CD2       24.4460    4.3120   22.1570 C.ar  511  TRP511      0.0152
     36  NE1       25.0380    5.2280   24.0990 N.ar  511  TRP511     -0.2442
     37  CE2       24.7020    5.5250   22.8090 C.ar  511  TRP511      0.0810
     38  CE3       24.1090    4.3440   20.8130 C.ar  511  TRP511      0.0012
     39  CZ2       24.6000    6.7500   22.1700 C.ar  511  TRP511      0.0191
     40  CZ3       24.0410    5.5370   20.1820 C.ar  511  TRP511      0.0001
     41  CH2       24.2470    6.7360   20.8560 C.ar  511  TRP511      0.0015
     42  N         28.9880    2.5710   18.5200 N.3   515  HIS515     -0.1241
     43  CA        28.3180    3.8720   18.2850 C.3   515  HIS515      0.1621
     44  C         28.8880    5.0570   19.1010 C.2   515  HIS515      0.2264
     45  O         29.4020    5.9990   18.4980 O.2   515  HIS515     -0.2867
     46  CB        26.8030    3.7750   18.5460 C.3   515  HIS515      0.0745
     47  CG        26.0380    2.9140   17.5730 C.ar  515  HIS515      0.0817
     48  ND1       25.2360    3.4500   16.5930 N.ar  515  HIS515     -0.2268
     49  CD2       25.8650    1.5720   17.4900 C.ar  515  HIS515      0.1154
     50  CE1       24.6660    2.4770   15.8970 C.ar  515  HIS515      0.1986
     51  NE2       25.0190    1.3180   16.4190 N.ar  515  HIS515     -0.2212
     52  N         22.9930    7.9010   12.3590 N.3   549  ILE549     -0.1245
     53  CA        22.2880    6.9030   13.1600 C.3   549  ILE549      0.1561
     54  C         22.4270    7.2490   14.6710 C.2   549  ILE549      0.2260
     55  O         21.4400    7.1480   15.4220 O.2   549  ILE549     -0.2867
     56  CB        22.7160    5.4410   12.7670 C.3   549  ILE549      0.0252
     57  CG1       22.0170    4.3950   13.6190 C.3   549  ILE549      0.0019
     58  CG2       24.1760    5.2070   12.9890 C.3   549  ILE549      0.0019
     59  CD1       20.4990    4.2890   13.4500 C.3   549  ILE549      0.0001
     60  N         19.5500    7.9160   17.3600 N.3   553  ALA553     -0.1245
     61  CA        19.5260    7.2400   18.6840 C.3   553  ALA553      0.1562
     62  C         19.2100    8.1850   19.8380 C.2   553  ALA553      0.2260
     63  O         18.3600    7.9010   20.6840 O.2   553  ALA553     -0.2867
     64  CB        20.8260    6.4750   18.9680 C.3   553  ALA553      0.0290
     65  N         16.0110    6.4820   20.4390 N.3   557  LEU557     -0.1231
     66  CA        16.3450    5.1780   20.9790 C.3   557  LEU557      0.1693
     67  C         16.7050    5.2100   22.4550 C.2   557  LEU557      0.2591
     68  O         16.2140    4.4350   23.2400 O.2   557  LEU557     -0.2718
     69  CB        17.5240    4.5840   20.1830 C.3   557  LEU557      0.0284
     70  CG        17.1920    3.6750   18.9940 C.3   557  LEU557      0.0019
     71  CD1       15.7270    3.7240   18.5100 C.3   557  LEU557      0.0001
     72  CD2       18.1720    3.7930   17.7910 C.3   557  LEU557      0.0001
     73  N         17.5200    6.1650   22.8410 N.am  558  VAL558     -0.1980
     74  CA        18.2510    6.0920   24.0900 C.3   558  VAL558      0.1595
     75  C         17.8050    7.3110   24.9880 C.2   558  VAL558      0.2287
     76  O         18.3090    7.5930   26.1050 O.2   558  VAL558     -0.2864
     77  CB        19.7240    5.9590   23.6080 C.3   558  VAL558      0.0276
     78  CG1       20.5900    7.2280   23.7560 C.3   558  VAL558      0.0022
     79  CG2       20.3520    4.6950   24.1410 C.3   558  VAL558      0.0022
     80  N         14.6510    1.9350   24.1110 N.3   564  ILE564     -0.1245
     81  CA        15.4980    1.1310   24.9710 C.3   564  ILE564      0.1561
     82  C         15.0240    1.1200   26.4310 C.2   564  ILE564      0.2260
     83  O         14.9670    0.0610   27.0500 O.2   564  ILE564     -0.2867
     84  CB        16.9720    1.5960   24.8550 C.3   564  ILE564      0.0252
     85  CG1       17.4890    1.4260   23.4200 C.3   564  ILE564      0.0019
     86  CG2       17.8480    0.8330   25.7760 C.3   564  ILE564      0.0019
     87  CD1       17.3040    0.0700   22.8130 C.3   564  ILE564      0.0001
     88  N         12.1470   -3.1220   15.8740 N.3   761  VAL761     -0.1245
     89  CA        13.3810   -2.3360   15.8600 C.3   761  VAL761      0.1561
     90  C         14.5860   -3.2070   15.4570 C.2   761  VAL761      0.2260
     91  O         15.3710   -2.8360   14.5550 O.2   761  VAL761     -0.2867
     92  CB        13.6040   -1.6380   17.2200 C.3   761  VAL761      0.0252
     93  CG1       15.0150   -1.1000   17.3360 C.3   761  VAL761      0.0019
     94  CG2       12.6050   -0.5120   17.4070 C.3   761  VAL761      0.0019
     95  N         17.4990   -2.8800   12.4900 N.3   765  LEU765     -0.1245
     96  CA        18.9070   -2.8910   12.8870 C.3   765  LEU765      0.1561
     97  C         19.7400   -4.0080   12.2960 C.2   765  LEU765      0.2260
     98  O         20.9390   -3.8000   12.0600 O.2   765  LEU765     -0.2867
     99  CB        19.0350   -3.0350   14.3940 C.3   765  LEU765      0.0270
    100  CG        18.4450   -1.9130   15.2120 C.3   765  LEU765      0.0019
    101  CD1       18.8440   -2.1430   16.6690 C.3   765  LEU765      0.0001
    102  CD2       18.8780   -0.6050   14.6610 C.3   765  LEU765      0.0001
    103  N         24.1600    1.6180   10.9340 N.3   849  ILE849     -0.1245
    104  CA        22.8360    1.3000   11.3830 C.3   849  ILE849      0.1561
    105  C         22.9810    0.9230   12.8600 C.2   849  ILE849      0.2260
    106  O         21.9840    1.0040   13.5370 O.2   849  ILE849     -0.2867
    107  CB        22.2400    0.1390   10.4690 C.3   849  ILE849      0.0252
    108  CG1       20.7590   -0.1740   10.7490 C.3   849  ILE849      0.0019
    109  CG2       23.1320   -1.0870   10.4950 C.3   849  ILE849      0.0019
    110  CD1       19.8650    1.0980   10.7690 C.3   849  ILE849      0.0001
@<TRIPOS>BOND
     1   107   109    1
     2   107   108    1
     3   107   104    1
     4   108   110    1
     5   103   104    1
     6   104   105    1
     7    98    97    2
     8    97    96    1
     9    52    53    1
    10    95    96    1
    11    56    58    1
    12    56    53    1
    13    56    57    1
    14   105   106    2
    15    96    99    1
    16    53    54    1
    17    59    57    1
    18    99   100    1
    19    91    90    2
    20   102   100    1
    21    54    55    2
    22   100   101    1
    23    90    89    1
    24    89    88    1
    25    89    92    1
    26    50    51   ar
    27    50    48   ar
    28    51    49   ar
    29    48    47   ar
    30    27    26   ar
    31    27    25   ar
    32    92    93    1
    33    92    94    1
    34    60    61    1
    35    49    47   ar
    36    47    46    1
    37    72    70    1
    38    26    24   ar
    39    25    23   ar
    40    43    42    1
    41    43    46    1
    42    43    44    1
    43    45    44    2
    44    71    70    1
    45    61    64    1
    46    61    62    1
    47    70    69    1
    48    24    23   ar
    49    23    22    1
    50    62    63    2
    51    40    38   ar
    52    40    41   ar
    53    69    66    1
    54    65    66    1
    55    21    20    2
    56    22    19    1
    57    38    35   ar
    58    41    39   ar
    59    19    20    1
    60    19    18    1
    61    66    67    1
    62    20    28   am
    63     8     7    2
    64    31    30    2
    65     9     7   am
    66    28    29    1
    67    29    30    1
    68    29    32    1
    69     7     6    1
    70    35    37   ar
    71    35    33   ar
    72    39    37   ar
    73    67    73   am
    74    67    68    2
    75    37    36   ar
    76    87    85    1
    77    32    33    1
    78    73    74    1
    79    33    34   ar
    80     4     3    2
    81    85    84    1
    82     6     5    1
    83    77    78    1
    84    77    74    1
    85    77    79    1
    86     2     3    1
    87     2     5    1
    88     2     1    1
    89    74    75    1
    90    36    34   ar
    91    80    81    1
    92     3    10   am
    93    84    81    1
    94    84    86    1
    95    81    82    1
    96    75    76    2
    97    10    11    1
    98    13    12    2
    99    12    11    1
   100    11    14    1
   101    82    83    2
   102    17    15    1
   103    16    15    1
   104    14    15    1
