@<TRIPOS>MOLECULE
tmp/1n8vB00.pdb
 159 147 0 0 0
SMALL
GASTEIGER

@<TRIPOS>ATOM
      1  N         -7.7240   33.5520    7.4350 N.3     5  THR5       -0.1218
      2  CA        -8.9900   32.8780    7.1090 C.3     5  THR5        0.1862
      3  C         -8.7860   31.3810    6.8890 C.2     5  THR5        0.2287
      4  O         -7.7630   30.9630    6.3690 O.2     5  THR5       -0.2866
      5  CB        -9.6350   33.4920    5.8540 C.3     5  THR5        0.1770
      6  OG1      -10.8950   32.8480    5.5910 O.3     5  THR5       -0.2211
      7  CG2       -8.8000   33.2590    4.5930 C.3     5  THR5        0.0375
      8  N        -10.4350   28.6200    2.7220 N.3     8  TYR8       -0.1227
      9  CA        -9.8630   27.8390    1.6260 C.3     8  TYR8        0.1736
     10  C         -9.1860   26.5520    2.1260 C.2     8  TYR8        0.2595
     11  O         -8.5510   25.8450    1.3490 O.2     8  TYR8       -0.2718
     12  CB        -8.8220   28.6650    0.8480 C.3     8  TYR8        0.0548
     13  CG        -9.3340   29.9760    0.2810 C.ar    8  TYR8       -0.0200
     14  CD1      -10.3010   30.0010   -0.7040 C.ar    8  TYR8       -0.0009
     15  CD2       -8.8070   31.1990    0.7030 C.ar    8  TYR8       -0.0009
     16  CE1      -10.7580   31.1980   -1.2380 C.ar    8  TYR8        0.0417
     17  CE2       -9.2640   32.3920    0.1840 C.ar    8  TYR8        0.0417
     18  CZ       -10.2260   32.3940   -0.7980 C.ar    8  TYR8        0.1957
     19  OH       -10.6870   33.6050   -1.3230 O.3     8  TYR8       -0.2866
     20  N         -9.3130   26.2390    3.4120 N.am    9  ASP9       -0.1974
     21  CA        -8.5430   25.1210    3.9850 C.3     9  ASP9        0.1709
     22  C         -8.8760   23.7200    3.4980 C.2     9  ASP9        0.2293
     23  O         -8.1250   22.7850    3.7780 O.2     9  ASP9       -0.2864
     24  CB        -8.5460   25.1790    5.5030 C.3     9  ASP9        0.1436
     25  CG        -7.5120   26.1500    6.0520 C.2     9  ASP9        0.3671
     26  OD1       -6.9400   26.9360    5.2710 O.co2   9  ASP9       -0.2456
     27  OD2       -7.2560   26.2290    7.2480 O.co2   9  ASP9       -0.2456
     28  N         -8.8370   22.9980    0.3460 N.3    11  ILE11      -0.1245
     29  CA        -8.1940   22.9540   -0.9700 C.3    11  ILE11       0.1561
     30  C         -7.5670   21.5780   -1.1520 C.2    11  ILE11       0.2260
     31  O         -7.0110   20.9990   -0.2060 O.2    11  ILE11      -0.2867
     32  CB        -7.1200   24.0730   -1.0970 C.3    11  ILE11       0.0252
     33  CG1       -6.5350   24.1190   -2.5140 C.3    11  ILE11       0.0019
     34  CG2       -6.0580   23.9050   -0.0630 C.3    11  ILE11       0.0019
     35  CD1       -5.7240   25.3540   -2.7740 C.3    11  ILE11       0.0001
     36  N         -4.7700   19.7980   -2.1550 N.3    13  LEU13      -0.1245
     37  CA        -3.3290   19.8910   -2.3740 C.3    13  LEU13       0.1561
     38  C         -2.8090   18.7020   -3.1590 C.2    13  LEU13       0.2260
     39  O         -1.8700   18.8570   -3.9510 O.2    13  LEU13      -0.2867
     40  CB        -2.5680   19.9780   -1.0490 C.3    13  LEU13       0.0270
     41  CG        -2.7550   21.2350   -0.2190 C.3    13  LEU13       0.0019
     42  CD1       -4.1740   21.3860    0.2430 C.3    13  LEU13       0.0001
     43  CD2       -1.8230   21.1930    0.9850 C.3    13  LEU13       0.0001
     44  N         -3.0720   19.4740   -6.8160 N.3    16  ILE16      -0.1231
     45  CA        -2.1290   20.4940   -7.2950 C.3    16  ILE16       0.1692
     46  C         -0.7010   19.9400   -7.4840 C.2    16  ILE16       0.2591
     47  O         -0.0150   20.2140   -8.4740 O.2    16  ILE16      -0.2718
     48  CB        -2.1090   21.7090   -6.3130 C.3    16  ILE16       0.0266
     49  CG1       -3.4750   22.3940   -6.3060 C.3    16  ILE16       0.0019
     50  CG2       -1.0110   22.6850   -6.6860 C.3    16  ILE16       0.0020
     51  CD1       -3.6450   23.4570   -5.2230 C.3    16  ILE16       0.0001
     52  N         -0.2670   19.1430   -6.5180 N.am   17  LEU17      -0.1980
     53  CA         1.0780   18.5910   -6.5470 C.3    17  LEU17       0.1596
     54  C          1.2370   17.5070   -7.6050 C.2    17  LEU17       0.2287
     55  O          2.3230   17.3480   -8.1670 O.2    17  LEU17      -0.2864
     56  CB         1.4780   18.0930   -5.1640 C.3    17  LEU17       0.0297
     57  CG         1.5070   19.1600   -4.0580 C.3    17  LEU17       0.0022
     58  CD1        1.8750   18.5480   -2.7290 C.3    17  LEU17       0.0001
     59  CD2        2.4530   20.2720   -4.4390 C.3    17  LEU17       0.0001
     60  N          0.2200   23.2420  -10.5020 N.3    23  LEU23      -0.1245
     61  CA         1.3050   23.6990   -9.6450 C.3    23  LEU23       0.1561
     62  C          1.9390   24.9770  -10.2050 C.2    23  LEU23       0.2260
     63  O          2.1190   25.9630   -9.4760 O.2    23  LEU23      -0.2867
     64  CB         2.3520   22.5930   -9.5130 C.3    23  LEU23       0.0270
     65  CG         3.6170   22.9090   -8.7090 C.3    23  LEU23       0.0019
     66  CD1        3.3080   23.4210   -7.3170 C.3    23  LEU23       0.0001
     67  CD2        4.5300   21.6900   -8.6480 C.3    23  LEU23       0.0001
     68  N          0.0740   28.2330   -9.6300 N.3    26  TYR26      -0.1227
     69  CA         0.2730   28.7680   -8.2870 C.3    26  TYR26       0.1736
     70  C          1.6760   29.3830   -8.1160 C.2    26  TYR26       0.2595
     71  O          1.8160   30.4490   -7.5620 O.2    26  TYR26      -0.2718
     72  CB         0.0390   27.6670   -7.2270 C.3    26  TYR26       0.0548
     73  CG        -1.4220   27.4460   -6.9050 C.ar   26  TYR26      -0.0200
     74  CD1       -2.1020   28.2870   -6.0540 C.ar   26  TYR26      -0.0009
     75  CD2       -2.1300   26.4250   -7.5020 C.ar   26  TYR26      -0.0009
     76  CE1       -3.4510   28.1000   -5.7850 C.ar   26  TYR26       0.0417
     77  CE2       -3.4760   26.2340   -7.2440 C.ar   26  TYR26       0.0417
     78  CZ        -4.1290   27.0940   -6.4000 C.ar   26  TYR26       0.1957
     79  OH        -5.4700   26.8920   -6.1060 O.3    26  TYR26      -0.2866
     80  N          2.6920   28.7160   -8.6590 N.am   27  VAL27      -0.1980
     81  CA         4.0460   29.2460   -8.5690 C.3    27  VAL27       0.1595
     82  C          4.1290   30.5980   -9.2930 C.2    27  VAL27       0.2287
     83  O          4.6710   31.5710   -8.7510 O.2    27  VAL27      -0.2864
     84  CB         5.0630   28.2480   -9.1470 C.3    27  VAL27       0.0276
     85  CG1        6.4240   28.9070   -9.2770 C.3    27  VAL27       0.0022
     86  CG2        5.1600   27.0100   -8.2640 C.3    27  VAL27       0.0022
     87  N          2.4890   33.4230   -7.1540 N.3    30  VAL30      -0.1245
     88  CA         3.2660   33.8190   -6.0000 C.3    30  VAL30       0.1561
     89  C          4.5760   34.4970   -6.4210 C.2    30  VAL30       0.2260
     90  O          5.0750   35.3860   -5.7280 O.2    30  VAL30      -0.2867
     91  CB         3.4960   32.6040   -5.0660 C.3    30  VAL30       0.0252
     92  CG1        4.4110   32.9360   -3.9180 C.3    30  VAL30       0.0019
     93  CG2        2.1640   32.1130   -4.5070 C.3    30  VAL30       0.0019
     94  N         -7.4250   31.4600   -4.0330 N.3    39  GLU39      -0.1245
     95  CA        -6.5370   30.8190   -3.0640 C.3    39  GLU39       0.1567
     96  C         -5.0840   31.3090   -3.2260 C.2    39  GLU39       0.2260
     97  O         -4.3900   31.5910   -2.2460 O.2    39  GLU39      -0.2867
     98  CB        -6.5690   29.2950   -3.2510 C.3    39  GLU39       0.0388
     99  CG        -7.8880   28.6500   -2.8710 C.3    39  GLU39       0.1160
    100  CD        -8.8990   28.5420   -3.9890 C.2    39  GLU39       0.3649
    101  OE1       -8.7680   29.2240   -5.0290 O.co2  39  GLU39      -0.2457
    102  OE2       -9.8690   27.7490   -3.8130 O.co2  39  GLU39      -0.2457
    103  N         -4.6530   34.7540   -1.8520 N.3    42  GLU42      -0.1231
    104  CA        -4.6330   34.7740   -0.4000 C.3    42  GLU42       0.1699
    105  C         -3.2670   34.3510    0.1180 C.2    42  GLU42       0.2592
    106  O         -2.7340   34.9350    1.0680 O.2    42  GLU42      -0.2718
    107  CB        -5.7350   33.8660    0.1850 C.3    42  GLU42       0.0402
    108  CG        -6.0710   34.1040    1.6620 C.3    42  GLU42       0.1161
    109  CD        -6.8470   35.3970    1.9020 C.2    42  GLU42       0.3649
    110  OE1       -6.8630   35.9060    3.0370 O.co2  42  GLU42      -0.2457
    111  OE2       -7.4710   35.9190    0.9660 O.co2  42  GLU42      -0.2457
    112  N         -2.6780   33.3320   -0.4900 N.am   43  LEU43      -0.1980
    113  CA        -1.3540   32.8800   -0.1060 C.3    43  LEU43       0.1596
    114  C         -0.3150   33.9760   -0.3630 C.2    43  LEU43       0.2287
    115  O          0.5130   34.2840    0.4940 O.2    43  LEU43      -0.2864
    116  CB        -0.9800   31.6000   -0.8510 C.3    43  LEU43       0.0297
    117  CG         0.4820   31.1470   -0.7020 C.3    43  LEU43       0.0022
    118  CD1        0.7860   30.8750    0.7670 C.3    43  LEU43       0.0001
    119  CD2        0.7960   29.9190   -1.5280 C.3    43  LEU43       0.0001
    120  N         -4.0620   23.2820    9.5160 N.3    61  ASN61      -0.1225
    121  CA        -4.1240   22.8280    8.1120 C.3    61  ASN61       0.1785
    122  C         -3.1130   23.5710    7.2260 C.2    61  ASN61       0.2597
    123  O         -2.4260   22.9820    6.3770 O.2    61  ASN61      -0.2718
    124  CB        -5.5390   22.9960    7.5430 C.3    61  ASN61       0.1169
    125  CG        -6.3480   21.7040    7.5690 C.2    61  ASN61       0.2627
    126  OD1       -6.3250   20.9700    8.5530 O.2    61  ASN61      -0.2716
    127  ND2       -7.0490   21.4190    6.4710 N.am   61  ASN61      -0.0877
    128  N         -3.0120   24.8800    7.4190 N.am   62  GLN62      -0.1979
    129  CA        -2.0670   25.6930    6.6680 C.3    62  GLN62       0.1601
    130  C         -0.6300   25.3170    6.9740 C.2    62  GLN62       0.2287
    131  O          0.1730   25.2400    6.0590 O.2    62  GLN62      -0.2864
    132  CB        -2.3150   27.1810    6.9230 C.3    62  GLN62       0.0394
    133  CG        -3.6020   27.6710    6.2510 C.3    62  GLN62       0.0908
    134  CD        -4.1460   28.9650    6.8160 C.2    62  GLN62       0.2608
    135  OE1       -3.5720   29.5730    7.7220 O.2    62  GLN62      -0.2717
    136  NE2       -5.2750   29.4030    6.2700 N.am   62  GLN62      -0.0878
    137  N          3.9030   20.9680    0.7710 N.3    69  VAL69      -0.1245
    138  CA         4.2790   21.6260   -0.4680 C.3    69  VAL69       0.1561
    139  C          5.7850   21.8800   -0.5400 C.2    69  VAL69       0.2260
    140  O          6.4110   21.6340   -1.5600 O.2    69  VAL69      -0.2867
    141  CB         3.5270   22.9610   -0.6300 C.3    69  VAL69       0.0252
    142  CG1        4.1010   23.7800   -1.7990 C.3    69  VAL69       0.0019
    143  CG2        2.0300   22.7060   -0.7870 C.3    69  VAL69       0.0019
    144  N          8.4690   20.5290   -3.3290 N.3    73  LEU73      -0.1245
    145  CA         9.2860   21.4130   -4.1520 C.3    73  LEU73       0.1561
    146  C         10.7780   21.1290   -4.0060 C.2    73  LEU73       0.2260
    147  O         11.5190   21.0910   -4.9990 O.2    73  LEU73      -0.2867
    148  CB         9.0040   22.8720   -3.8070 C.3    73  LEU73       0.0270
    149  CG         7.6050   23.3980   -4.0780 C.3    73  LEU73       0.0019
    150  CD1        7.5160   24.8080   -3.5660 C.3    73  LEU73       0.0001
    151  CD2        7.2500   23.3630   -5.5350 C.3    73  LEU73       0.0001
    152  N         11.6460   30.7520   -4.6970 N.3    84  LEU84      -0.1245
    153  CA        10.6300   31.1190   -3.6930 C.3    84  LEU84       0.1561
    154  C         11.2730   31.5090   -2.3640 C.2    84  LEU84       0.2260
    155  O         10.9380   32.5440   -1.7880 O.2    84  LEU84      -0.2867
    156  CB         9.6340   29.9720   -3.4800 C.3    84  LEU84       0.0270
    157  CG         8.5580   29.7930   -4.5320 C.3    84  LEU84       0.0019
    158  CD1        7.8850   28.4680   -4.3320 C.3    84  LEU84       0.0001
    159  CD2        7.5490   30.8980   -4.4760 C.3    84  LEU84       0.0001
@<TRIPOS>BOND
     1    60    61    1
     2    62    61    1
     3    62    63    2
     4    61    64    1
     5    68    69    1
     6    64    65    1
     7    82    83    2
     8    82    81    1
     9    85    84    1
    10    84    81    1
    11    84    86    1
    12    65    67    1
    13    65    66    1
    14    80    81    1
    15    80    70   am
    16    47    46    2
    17    69    70    1
    18    69    72    1
    19    55    54    2
    20    70    71    2
    21    54    53    1
    22    75    77   ar
    23    75    73   ar
    24    46    45    1
    25    46    52   am
    26    45    44    1
    27    45    48    1
    28    77    78   ar
    29    72    73    1
    30    87    88    1
    31    73    74   ar
    32    50    48    1
    33    53    52    1
    34    53    56    1
    35    89    88    1
    36    89    90    2
    37    78    79    1
    38    78    76   ar
    39    48    49    1
    40    49    51    1
    41    74    76   ar
    42    88    91    1
    43   151   149    1
    44    56    57    1
    45    91    93    1
    46    91    92    1
    47   101   100   ar
    48   147   146    2
    49   152   153    1
    50   157   159    1
    51   157   158    1
    52   157   156    1
    53    59    57    1
    54   145   146    1
    55   145   148    1
    56   145   144    1
    57   149   148    1
    58   149   150    1
    59    57    58    1
    60    94    95    1
    61   100   102   ar
    62   100    99    1
    63    39    38    2
    64   153   156    1
    65   153   154    1
    66    98    95    1
    67    98    99    1
    68    96    95    1
    69    96    97    2
    70    38    37    1
    71    35    33    1
    72    33    32    1
    73    37    36    1
    74    37    40    1
    75   154   155    2
    76   103   104    1
    77   142   141    1
    78   140   139    2
    79   119   117    1
    80    19    18    1
    81    16    18   ar
    82    16    14   ar
    83    30    29    1
    84    30    31    2
    85    32    29    1
    86    32    34    1
    87    40    41    1
    88    29    28    1
    89   116   117    1
    90   116   113    1
    91    18    17   ar
    92   143   141    1
    93    14    13   ar
    94   117   118    1
    95   141   138    1
    96   139   138    1
    97   112   113    1
    98   112   105   am
    99   138   137    1
   100   104   105    1
   101   104   107    1
   102   114   113    1
   103   114   115    2
   104    41    42    1
   105    41    43    1
   106   105   106    2
   107    17    15   ar
   108   107   108    1
   109    13    15   ar
   110    13    12    1
   111    12     9    1
   112   111   109   ar
   113    11    10    2
   114     9    10    1
   115     9     8    1
   116   108   109    1
   117   109   110   ar
   118    10    20   am
   119    20    21    1
   120    22    23    2
   121    22    21    1
   122    21    24    1
   123     7     5    1
   124    26    25   ar
   125    24    25    1
   126     6     5    1
   127     5     2    1
   128    25    27   ar
   129   131   130    2
   130   133   134    1
   131   133   132    1
   132   136   134   am
   133     4     3    2
   134   123   122    2
   135   127   125   am
   136   129   132    1
   137   129   130    1
   138   129   128    1
   139   134   135    2
   140     3     2    1
   141     2     1    1
   142   122   128   am
   143   122   121    1
   144   124   125    1
   145   124   121    1
   146   125   126    2
   147   121   120    1
