@<TRIPOS>MOLECULE
tmp/1n8vB02.pdb
 174 165 0 0 0
SMALL
GASTEIGER

@<TRIPOS>ATOM
      1  N         -8.8370   22.9980    0.3460 N.3    11  ILE11      -0.1245
      2  CA        -8.1940   22.9540   -0.9700 C.3    11  ILE11       0.1561
      3  C         -7.5670   21.5780   -1.1520 C.2    11  ILE11       0.2260
      4  O         -7.0110   20.9990   -0.2060 O.2    11  ILE11      -0.2867
      5  CB        -7.1200   24.0730   -1.0970 C.3    11  ILE11       0.0252
      6  CG1       -6.5350   24.1190   -2.5140 C.3    11  ILE11       0.0019
      7  CG2       -6.0580   23.9050   -0.0630 C.3    11  ILE11       0.0019
      8  CD1       -5.7240   25.3540   -2.7740 C.3    11  ILE11       0.0001
      9  N         -4.7700   19.7980   -2.1550 N.3    13  LEU13      -0.1245
     10  CA        -3.3290   19.8910   -2.3740 C.3    13  LEU13       0.1561
     11  C         -2.8090   18.7020   -3.1590 C.2    13  LEU13       0.2260
     12  O         -1.8700   18.8570   -3.9510 O.2    13  LEU13      -0.2867
     13  CB        -2.5680   19.9780   -1.0490 C.3    13  LEU13       0.0270
     14  CG        -2.7550   21.2350   -0.2190 C.3    13  LEU13       0.0019
     15  CD1       -4.1740   21.3860    0.2430 C.3    13  LEU13       0.0001
     16  CD2       -1.8230   21.1930    0.9850 C.3    13  LEU13       0.0001
     17  N          2.4890   33.4230   -7.1540 N.3    30  VAL30      -0.1245
     18  CA         3.2660   33.8190   -6.0000 C.3    30  VAL30       0.1561
     19  C          4.5760   34.4970   -6.4210 C.2    30  VAL30       0.2260
     20  O          5.0750   35.3860   -5.7280 O.2    30  VAL30      -0.2867
     21  CB         3.4960   32.6040   -5.0660 C.3    30  VAL30       0.0252
     22  CG1        4.4110   32.9360   -3.9180 C.3    30  VAL30       0.0019
     23  CG2        2.1640   32.1130   -4.5070 C.3    30  VAL30       0.0019
     24  N         -2.6780   33.3320   -0.4900 N.3    43  LEU43      -0.1245
     25  CA        -1.3540   32.8800   -0.1060 C.3    43  LEU43       0.1561
     26  C         -0.3150   33.9760   -0.3630 C.2    43  LEU43       0.2260
     27  O          0.5130   34.2840    0.4940 O.2    43  LEU43      -0.2867
     28  CB        -0.9800   31.6000   -0.8510 C.3    43  LEU43       0.0270
     29  CG         0.4820   31.1470   -0.7020 C.3    43  LEU43       0.0019
     30  CD1        0.7860   30.8750    0.7670 C.3    43  LEU43       0.0001
     31  CD2        0.7960   29.9190   -1.5280 C.3    43  LEU43       0.0001
     32  N          2.0660   35.3630    2.7340 N.3    47  LEU47      -0.1245
     33  CA         3.2910   34.5680    2.8310 C.3    47  LEU47       0.1561
     34  C          4.4350   35.2770    3.5680 C.2    47  LEU47       0.2260
     35  O          5.1220   34.6850    4.4230 O.2    47  LEU47      -0.2867
     36  CB         3.7500   34.1490    1.4380 C.3    47  LEU47       0.0270
     37  CG         4.9390   33.2070    1.3000 C.3    47  LEU47       0.0019
     38  CD1        4.8190   32.0040    2.2310 C.3    47  LEU47       0.0001
     39  CD2        5.1080   32.7500   -0.1630 C.3    47  LEU47       0.0001
     40  N          6.2290   34.0730    7.1960 N.3    51  ILE51      -0.1245
     41  CA         7.6730   33.8480    7.3040 C.3    51  ILE51       0.1561
     42  C          8.2600   34.6820    8.4370 C.2    51  ILE51       0.2260
     43  O          9.1300   34.2030    9.2010 O.2    51  ILE51      -0.2867
     44  CB         8.3110   34.1600    5.9340 C.3    51  ILE51       0.0252
     45  CG1        7.9470   33.0240    4.9910 C.3    51  ILE51       0.0019
     46  CG2        9.8590   34.3750    6.0440 C.3    51  ILE51       0.0019
     47  CD1        8.1980   33.3160    3.5270 C.3    51  ILE51       0.0001
     48  N         -3.0120   24.8800    7.4190 N.3    62  GLN62      -0.1245
     49  CA        -2.0670   25.6930    6.6680 C.3    62  GLN62       0.1566
     50  C         -0.6300   25.3170    6.9740 C.2    62  GLN62       0.2260
     51  O          0.1730   25.2400    6.0590 O.2    62  GLN62      -0.2867
     52  CB        -2.3150   27.1810    6.9230 C.3    62  GLN62       0.0367
     53  CG        -3.6020   27.6710    6.2510 C.3    62  GLN62       0.0905
     54  CD        -4.1460   28.9650    6.8160 C.2    62  GLN62       0.2608
     55  OE1       -3.5720   29.5730    7.7220 O.2    62  GLN62      -0.2717
     56  NE2       -5.2750   29.4030    6.2700 N.am   62  GLN62      -0.0878
     57  N          0.0360   21.8790    5.4200 N.3    65  GLY65      -0.1210
     58  CA         0.0110   22.0360    3.9550 C.3    65  GLY65       0.1956
     59  C          1.2920   22.6970    3.4800 C.2    65  GLY65       0.2611
     60  O          1.8780   22.3020    2.4760 O.2    65  GLY65      -0.2717
     61  N          1.7790   23.6730    4.2340 N.am   66  ALA66      -0.1979
     62  CA         3.0290   24.3440    3.9080 C.3    66  ALA66       0.1597
     63  C          4.1780   23.3380    3.8700 C.2    66  ALA66       0.2287
     64  O          4.9470   23.3040    2.9270 O.2    66  ALA66      -0.2864
     65  CB         3.3170   25.4380    4.9110 C.3    66  ALA66       0.0319
     66  N          3.9030   20.9680    0.7710 N.3    69  VAL69      -0.1231
     67  CA         4.2790   21.6260   -0.4680 C.3    69  VAL69       0.1692
     68  C          5.7850   21.8800   -0.5400 C.2    69  VAL69       0.2591
     69  O          6.4110   21.6340   -1.5600 O.2    69  VAL69      -0.2718
     70  CB         3.5270   22.9610   -0.6300 C.3    69  VAL69       0.0266
     71  CG1        4.1010   23.7800   -1.7990 C.3    69  VAL69       0.0020
     72  CG2        2.0300   22.7060   -0.7870 C.3    69  VAL69       0.0020
     73  N          6.3460   22.3940    0.5490 N.am   70  ILE70      -0.1980
     74  CA         7.7680   22.6950    0.5850 C.3    70  ILE70       0.1595
     75  C          8.5920   21.4320    0.3640 C.2    70  ILE70       0.2287
     76  O          9.5260   21.4370   -0.4210 O.2    70  ILE70      -0.2864
     77  CB         8.1200   23.3780    1.9040 C.3    70  ILE70       0.0276
     78  CG1        7.5340   24.8040    1.9010 C.3    70  ILE70       0.0022
     79  CG2        9.6370   23.4010    2.1180 C.3    70  ILE70       0.0022
     80  CD1        7.5470   25.4820    3.2210 C.3    70  ILE70       0.0001
     81  N          8.4690   20.5290   -3.3290 N.3    73  LEU73      -0.1245
     82  CA         9.2860   21.4130   -4.1520 C.3    73  LEU73       0.1561
     83  C         10.7780   21.1290   -4.0060 C.2    73  LEU73       0.2260
     84  O         11.5190   21.0910   -4.9990 O.2    73  LEU73      -0.2867
     85  CB         9.0040   22.8720   -3.8070 C.3    73  LEU73       0.0270
     86  CG         7.6050   23.3980   -4.0780 C.3    73  LEU73       0.0019
     87  CD1        7.5160   24.8080   -3.5660 C.3    73  LEU73       0.0001
     88  CD2        7.2500   23.3630   -5.5350 C.3    73  LEU73       0.0001
     89  N         11.8790   25.8860   -5.6020 N.3    81  TRP81      -0.1241
     90  CA        12.1500   26.0930   -4.1780 C.3    81  TRP81       0.1605
     91  C         13.1540   27.2300   -3.9830 C.2    81  TRP81       0.2264
     92  O         12.9190   28.1600   -3.1950 O.2    81  TRP81      -0.2867
     93  CB        12.7000   24.8270   -3.5290 C.3    81  TRP81       0.0550
     94  CG        13.3840   25.0560   -2.1890 C.ar   81  TRP81       0.0003
     95  CD1       14.6770   24.7830   -1.8970 C.ar   81  TRP81       0.0946
     96  CD2       12.7840   25.5060   -0.9600 C.ar   81  TRP81       0.0152
     97  NE1       14.9430   25.0600   -0.5760 N.ar   81  TRP81      -0.2442
     98  CE2       13.7900   25.5170    0.0190 C.ar   81  TRP81       0.0810
     99  CE3       11.5030   25.9360   -0.5990 C.ar   81  TRP81       0.0012
    100  CZ2       13.5420   25.9220    1.3440 C.ar   81  TRP81       0.0191
    101  CZ3       11.2710   26.3540    0.6840 C.ar   81  TRP81       0.0001
    102  CH2       12.2610   26.3380    1.6460 C.ar   81  TRP81       0.0015
    103  N         11.6460   30.7520   -4.6970 N.3    84  LEU84      -0.1231
    104  CA        10.6300   31.1190   -3.6930 C.3    84  LEU84       0.1693
    105  C         11.2730   31.5090   -2.3640 C.2    84  LEU84       0.2592
    106  O         10.9380   32.5440   -1.7880 O.2    84  LEU84      -0.2718
    107  CB         9.6340   29.9720   -3.4800 C.3    84  LEU84       0.0284
    108  CG         8.5580   29.7930   -4.5320 C.3    84  LEU84       0.0019
    109  CD1        7.8850   28.4680   -4.3320 C.3    84  LEU84       0.0001
    110  CD2        7.5490   30.8980   -4.4760 C.3    84  LEU84       0.0001
    111  N         12.2120   30.7120   -1.8790 N.am   85  THR85      -0.1953
    112  CA        12.8700   31.0280   -0.6100 C.3    85  THR85       0.1897
    113  C         13.7290   32.2880   -0.7490 C.2    85  THR85       0.2313
    114  O         13.7830   33.1170    0.1760 O.2    85  THR85      -0.2863
    115  CB        13.6010   29.7750   -0.0360 C.3    85  THR85       0.1794
    116  OG1       14.0290   30.0310    1.3140 O.3    85  THR85      -0.2208
    117  CG2       14.8290   29.4290   -0.8250 C.3    85  THR85       0.0378
    118  N         10.9850   35.3690   -0.8310 N.3    88  TYR88      -0.1227
    119  CA        10.1650   35.5900    0.3660 C.3    88  TYR88       0.1736
    120  C         10.9130   35.4080    1.6840 C.2    88  TYR88       0.2595
    121  O         10.4200   35.8500    2.7140 O.2    88  TYR88      -0.2718
    122  CB         8.9360   34.6830    0.3350 C.3    88  TYR88       0.0548
    123  CG         7.8840   35.1300   -0.6360 C.ar   88  TYR88      -0.0200
    124  CD1        6.9370   36.0810   -0.2730 C.ar   88  TYR88      -0.0009
    125  CD2        7.8250   34.6270   -1.9330 C.ar   88  TYR88      -0.0009
    126  CE1        5.9900   36.5030   -1.1590 C.ar   88  TYR88       0.0417
    127  CE2        6.8840   35.0520   -2.8170 C.ar   88  TYR88       0.0417
    128  CZ         5.9610   35.9850   -2.4280 C.ar   88  TYR88       0.1957
    129  OH         5.0020   36.4300   -3.3220 O.3    88  TYR88      -0.2866
    130  N         12.0840   34.7780    1.6670 N.am   89  ASP89      -0.1974
    131  CA        12.8780   34.5820    2.8790 C.3    89  ASP89       0.1709
    132  C         14.3420   34.9470    2.5850 C.2    89  ASP89       0.2293
    133  O         15.2440   34.1340    2.7380 O.2    89  ASP89      -0.2864
    134  CB        12.7040   33.1330    3.3630 C.3    89  ASP89       0.1436
    135  CG        13.2670   32.8770    4.7580 C.2    89  ASP89       0.3671
    136  OD1       13.6610   33.8080    5.5170 O.co2  89  ASP89      -0.2456
    137  OD2       13.3840   31.6760    5.1510 O.co2  89  ASP89      -0.2456
    138  N         14.2960   30.2700    7.4460 N.3    94  TRP94      -0.1227
    139  CA        13.7530   28.9220    7.4250 C.3    94  TRP94       0.1737
    140  C         14.3430   27.9490    6.4010 C.2    94  TRP94       0.2595
    141  O         13.9990   26.7710    6.4190 O.2    94  TRP94      -0.2718
    142  CB        12.2250   28.9750    7.2320 C.3    94  TRP94       0.0564
    143  CG        11.5280   29.9080    8.1860 C.ar   94  TRP94       0.0003
    144  CD1       11.0810   31.1770    7.9060 C.ar   94  TRP94       0.0946
    145  CD2       11.1950   29.6610    9.5570 C.ar   94  TRP94       0.0152
    146  NE1       10.5010   31.7320    9.0300 N.ar   94  TRP94      -0.2442
    147  CE2       10.5620   30.8290   10.0570 C.ar   94  TRP94       0.0810
    148  CE3       11.3760   28.5840   10.4190 C.ar   94  TRP94       0.0012
    149  CZ2       10.1070   30.9280   11.3660 C.ar   94  TRP94       0.0191
    150  CZ3       10.8910   28.6880   11.7200 C.ar   94  TRP94       0.0001
    151  CH2       10.2870   29.8480   12.1680 C.ar   94  TRP94       0.0015
    152  N         15.2010   28.4290    5.5150 N.am   95  ARG95      -0.1980
    153  CA        15.6600   27.6040    4.4100 C.3    95  ARG95       0.1597
    154  C         16.3370   26.3140    4.8820 C.2    95  ARG95       0.2287
    155  O         15.9130   25.2100    4.5070 O.2    95  ARG95      -0.2864
    156  CB        16.5720   28.4140    3.5100 C.3    95  ARG95       0.0334
    157  CG        17.0630   27.6020    2.3160 C.3    95  ARG95       0.0492
    158  CD        17.8520   28.4070    1.3140 C.3    95  ARG95       0.2205
    159  NE        18.4350   27.5290    0.2990 N.pl3  95  ARG95      -0.0865
    160  CZ        19.2150   27.9490   -0.6600 C.cat  95  ARG95       0.5346
    161  NH1       19.4480   29.2390   -0.8170 N.pl3  95  ARG95       0.1354
    162  NH2       19.7220   27.0800   -1.5150 N.pl3  95  ARG95       0.1354
    163  N         13.9330   23.7970    6.8030 N.3    98  TYR98      -0.1241
    164  CA        13.0500   23.0230    5.9410 C.3    98  TYR98       0.1605
    165  C         13.8180   22.0090    5.1170 C.2    98  TYR98       0.2264
    166  O         13.3690   20.8950    4.9290 O.2    98  TYR98      -0.2867
    167  CB        12.2230   23.9090    5.0200 C.3    98  TYR98       0.0534
    168  CG        10.9280   24.4410    5.6440 C.ar   98  TYR98      -0.0201
    169  CD1        9.8870   23.5760    5.9740 C.ar   98  TYR98      -0.0009
    170  CD2       10.7270   25.7900    5.8200 C.ar   98  TYR98      -0.0009
    171  CE1        8.7080   24.0450    6.5200 C.ar   98  TYR98       0.0417
    172  CE2        9.5380   26.2830    6.3800 C.ar   98  TYR98       0.0417
    173  CZ         8.5360   25.3930    6.7020 C.ar   98  TYR98       0.1957
    174  OH         7.3590   25.8630    7.2530 O.3    98  TYR98      -0.2866
@<TRIPOS>BOND
     1    17    18    1
     2    19    18    1
     3    19    20    2
     4    18    21    1
     5    89    90    1
     6    88    86    1
     7    21    23    1
     8    21    22    1
     9    84    83    2
    10   103   104    1
    11   108   110    1
    12   108   109    1
    13   108   107    1
    14    90    91    1
    15    90    93    1
    16    82    83    1
    17    82    85    1
    18    82    81    1
    19    86    85    1
    20    86    87    1
    21    91    92    2
    22    12    11    2
    23   104   107    1
    24   104   105    1
    25    93    94    1
    26   129   128    1
    27    11    10    1
    28   127   128   ar
    29   127   125   ar
    30     8     6    1
    31     6     5    1
    32   128   126   ar
    33    10     9    1
    34    10    13    1
    35   105   111   am
    36   105   106    2
    37    94    95   ar
    38    94    96   ar
    39   125   123   ar
    40    95    97   ar
    41   111   112    1
    42    71    70    1
    43    69    68    2
    44    31    29    1
    45   162   160    1
    46   126   124   ar
    47     3     2    1
    48     3     4    2
    49     5     2    1
    50     5     7    1
    51    13    14    1
    52     2     1    1
    53    96    99   ar
    54    96    98   ar
    55    28    29    1
    56    28    25    1
    57   118   119    1
    58   117   115    1
    59   161   160    1
    60    72    70    1
    61   113   112    1
    62   113   114    2
    63    29    30    1
    64   160   159    2
    65   123   124   ar
    66   123   122    1
    67    70    67    1
    68   112   115    1
    69    99   101   ar
    70    97    98   ar
    71    68    67    1
    72    68    73   am
    73    24    25    1
    74    67    66    1
    75    76    75    2
    76    26    25    1
    77    26    27    2
    78    14    15    1
    79    14    16    1
    80    39    37    1
    81   115   116    1
    82    98   100   ar
    83   159   158    1
    84   122   119    1
    85    75    74    1
    86   119   120    1
    87    73    74    1
    88    74    77    1
    89   101   102   ar
    90    37    36    1
    91    37    38    1
    92   158   157    1
    93   100   102   ar
    94    36    33    1
    95   130   120   am
    96   130   131    1
    97   120   121    2
    98    78    77    1
    99    78    80    1
   100    77    79    1
   101   157   156    1
   102    60    59    2
   103   132   133    2
   104   132   131    1
   105    32    33    1
   106    33    34    1
   107   131   134    1
   108    64    63    2
   109   134   135    1
   110    59    58    1
   111    59    61   am
   112   156   153    1
   113    47    45    1
   114    34    35    2
   115    63    62    1
   116    62    61    1
   117    62    65    1
   118    58    57    1
   119   153   154    1
   120   153   152    1
   121   155   154    2
   122   135   137   ar
   123   135   136   ar
   124   166   165    2
   125    45    44    1
   126   167   168    1
   127   167   164    1
   128   165   164    1
   129   152   140   am
   130   168   170   ar
   131   168   169   ar
   132   170   172   ar
   133    44    46    1
   134    44    41    1
   135   164   163    1
   136   169   171   ar
   137    51    50    2
   138    53    54    1
   139    53    52    1
   140    56    54   am
   141   172   173   ar
   142   140   141    2
   143   140   139    1
   144   171   173   ar
   145    49    52    1
   146    49    50    1
   147    49    48    1
   148   173   174    1
   149    54    55    2
   150    40    41    1
   151   142   139    1
   152   142   143    1
   153    41    42    1
   154   139   138    1
   155   144   143   ar
   156   144   146   ar
   157   143   145   ar
   158    42    43    2
   159   146   147   ar
   160   145   147   ar
   161   145   148   ar
   162   147   149   ar
   163   148   150   ar
   164   149   151   ar
   165   150   151   ar
