@<TRIPOS>MOLECULE
tmp/1n8vB01.pdb
 160 154 0 0 0
SMALL
GASTEIGER

@<TRIPOS>ATOM
      1  N         -5.3960   33.8490   10.1660 N.3     4  TYR4       -0.1227
      2  CA        -5.7010   33.9230    8.7350 C.3     4  TYR4        0.1736
      3  C         -7.0250   33.1950    8.5040 C.2     4  TYR4        0.2596
      4  O         -7.4020   32.3300    9.2710 O.2     4  TYR4       -0.2718
      5  CB        -4.6320   33.2210    7.8660 C.3     4  TYR4        0.0548
      6  CG        -3.2260   33.7820    7.9720 C.ar    4  TYR4       -0.0200
      7  CD1       -2.1330   32.9340    7.9340 C.ar    4  TYR4       -0.0009
      8  CD2       -3.0010   35.1460    8.1110 C.ar    4  TYR4       -0.0009
      9  CE1       -0.8400   33.4420    8.0590 C.ar    4  TYR4        0.0417
     10  CE2       -1.7330   35.6560    8.2350 C.ar    4  TYR4        0.0417
     11  CZ        -0.6670   34.8010    8.2080 C.ar    4  TYR4        0.1957
     12  OH         0.6140   35.3060    8.3690 O.3     4  TYR4       -0.2866
     13  N         -7.7240   33.5520    7.4350 N.am    5  THR5       -0.1953
     14  CA        -8.9900   32.8780    7.1090 C.3     5  THR5        0.1897
     15  C         -8.7860   31.3810    6.8890 C.2     5  THR5        0.2313
     16  O         -7.7630   30.9630    6.3690 O.2     5  THR5       -0.2863
     17  CB        -9.6350   33.4920    5.8540 C.3     5  THR5        0.1794
     18  OG1      -10.8950   32.8480    5.5910 O.3     5  THR5       -0.2208
     19  CG2       -8.8000   33.2590    4.5930 C.3     5  THR5        0.0378
     20  N        -10.4350   28.6200    2.7220 N.3     8  TYR8       -0.1227
     21  CA        -9.8630   27.8390    1.6260 C.3     8  TYR8        0.1736
     22  C         -9.1860   26.5520    2.1260 C.2     8  TYR8        0.2595
     23  O         -8.5510   25.8450    1.3490 O.2     8  TYR8       -0.2718
     24  CB        -8.8220   28.6650    0.8480 C.3     8  TYR8        0.0548
     25  CG        -9.3340   29.9760    0.2810 C.ar    8  TYR8       -0.0200
     26  CD1      -10.3010   30.0010   -0.7040 C.ar    8  TYR8       -0.0009
     27  CD2       -8.8070   31.1990    0.7030 C.ar    8  TYR8       -0.0009
     28  CE1      -10.7580   31.1980   -1.2380 C.ar    8  TYR8        0.0417
     29  CE2       -9.2640   32.3920    0.1840 C.ar    8  TYR8        0.0417
     30  CZ       -10.2260   32.3940   -0.7980 C.ar    8  TYR8        0.1957
     31  OH       -10.6870   33.6050   -1.3230 O.3     8  TYR8       -0.2866
     32  N         -9.3130   26.2390    3.4120 N.am    9  ASP9       -0.1974
     33  CA        -8.5430   25.1210    3.9850 C.3     9  ASP9        0.1709
     34  C         -8.8760   23.7200    3.4980 C.2     9  ASP9        0.2293
     35  O         -8.1250   22.7850    3.7780 O.2     9  ASP9       -0.2864
     36  CB        -8.5460   25.1790    5.5030 C.3     9  ASP9        0.1436
     37  CG        -7.5120   26.1500    6.0520 C.2     9  ASP9        0.3671
     38  OD1       -6.9400   26.9360    5.2710 O.co2   9  ASP9       -0.2456
     39  OD2       -7.2560   26.2290    7.2480 O.co2   9  ASP9       -0.2456
     40  N         -7.4250   31.4600   -4.0330 N.3    39  GLU39      -0.1245
     41  CA        -6.5370   30.8190   -3.0640 C.3    39  GLU39       0.1567
     42  C         -5.0840   31.3090   -3.2260 C.2    39  GLU39       0.2260
     43  O         -4.3900   31.5910   -2.2460 O.2    39  GLU39      -0.2867
     44  CB        -6.5690   29.2950   -3.2510 C.3    39  GLU39       0.0388
     45  CG        -7.8880   28.6500   -2.8710 C.3    39  GLU39       0.1160
     46  CD        -8.8990   28.5420   -3.9890 C.2    39  GLU39       0.3649
     47  OE1       -8.7680   29.2240   -5.0290 O.co2  39  GLU39      -0.2457
     48  OE2       -9.8690   27.7490   -3.8130 O.co2  39  GLU39      -0.2457
     49  N         -4.6530   34.7540   -1.8520 N.3    42  GLU42      -0.1231
     50  CA        -4.6330   34.7740   -0.4000 C.3    42  GLU42       0.1699
     51  C         -3.2670   34.3510    0.1180 C.2    42  GLU42       0.2592
     52  O         -2.7340   34.9350    1.0680 O.2    42  GLU42      -0.2718
     53  CB        -5.7350   33.8660    0.1850 C.3    42  GLU42       0.0402
     54  CG        -6.0710   34.1040    1.6620 C.3    42  GLU42       0.1161
     55  CD        -6.8470   35.3970    1.9020 C.2    42  GLU42       0.3649
     56  OE1       -6.8630   35.9060    3.0370 O.co2  42  GLU42      -0.2457
     57  OE2       -7.4710   35.9190    0.9660 O.co2  42  GLU42      -0.2457
     58  N         -2.6780   33.3320   -0.4900 N.am   43  LEU43      -0.1980
     59  CA        -1.3540   32.8800   -0.1060 C.3    43  LEU43       0.1596
     60  C         -0.3150   33.9760   -0.3630 C.2    43  LEU43       0.2287
     61  O          0.5130   34.2840    0.4940 O.2    43  LEU43      -0.2864
     62  CB        -0.9800   31.6000   -0.8510 C.3    43  LEU43       0.0297
     63  CG         0.4820   31.1470   -0.7020 C.3    43  LEU43       0.0022
     64  CD1        0.7860   30.8750    0.7670 C.3    43  LEU43       0.0001
     65  CD2        0.7960   29.9190   -1.5280 C.3    43  LEU43       0.0001
     66  N         -0.2320   36.8150    2.2880 N.3    46  HIS46      -0.1226
     67  CA         0.1260   36.5200    3.6660 C.3    46  HIS46       0.1752
     68  C          1.4380   35.7760    3.8270 C.2    46  HIS46       0.2595
     69  O          1.8810   35.5720    4.9580 O.2    46  HIS46      -0.2718
     70  CB        -1.0090   35.7610    4.3520 C.3    46  HIS46       0.0759
     71  CG        -2.2830   36.5350    4.3570 C.ar   46  HIS46       0.0818
     72  ND1       -2.5570   37.5100    5.2850 N.ar   46  HIS46      -0.2268
     73  CD2       -3.2960   36.5670    3.4630 C.ar   46  HIS46       0.1154
     74  CE1       -3.7200   38.0730    4.9970 C.ar   46  HIS46       0.1986
     75  NE2       -4.1820   37.5260    3.8900 N.ar   46  HIS46      -0.2212
     76  N          2.0660   35.3630    2.7340 N.am   47  LEU47      -0.1980
     77  CA         3.2910   34.5680    2.8310 C.3    47  LEU47       0.1596
     78  C          4.4350   35.2770    3.5680 C.2    47  LEU47       0.2287
     79  O          5.1220   34.6850    4.4230 O.2    47  LEU47      -0.2864
     80  CB         3.7500   34.1490    1.4380 C.3    47  LEU47       0.0297
     81  CG         4.9390   33.2070    1.3000 C.3    47  LEU47       0.0022
     82  CD1        4.8190   32.0040    2.2310 C.3    47  LEU47       0.0001
     83  CD2        5.1080   32.7500   -0.1630 C.3    47  LEU47       0.0001
     84  N          3.7550   35.3310    7.3430 N.3    50  ALA50      -0.1231
     85  CA         3.9230   34.0060    7.9290 C.3    50  ALA50       0.1694
     86  C          5.3810   33.6520    8.1180 C.2    50  ALA50       0.2591
     87  O          5.7660   32.9900    9.0950 O.2    50  ALA50      -0.2718
     88  CB         3.2130   32.9560    7.0880 C.3    50  ALA50       0.0304
     89  N          6.2290   34.0730    7.1960 N.am   51  ILE51      -0.1980
     90  CA         7.6730   33.8480    7.3040 C.3    51  ILE51       0.1595
     91  C          8.2600   34.6820    8.4370 C.2    51  ILE51       0.2287
     92  O          9.1300   34.2030    9.2010 O.2    51  ILE51      -0.2864
     93  CB         8.3110   34.1600    5.9340 C.3    51  ILE51       0.0276
     94  CG1        7.9470   33.0240    4.9910 C.3    51  ILE51       0.0022
     95  CG2        9.8590   34.3750    6.0440 C.3    51  ILE51       0.0022
     96  CD1        8.1980   33.3160    3.5270 C.3    51  ILE51       0.0001
     97  N          6.7510   32.8850   11.8730 N.3    54  GLY54      -0.1210
     98  CA         6.7130   31.4440   11.9900 C.3    54  GLY54       0.1956
     99  C          5.3240   30.8240   12.0250 C.2    54  GLY54       0.2612
    100  O          5.0750   29.8440   12.7640 O.2    54  GLY54      -0.2717
    101  N          4.4150   31.3640   11.1930 N.am   55  CYS55      -0.1970
    102  CA         3.0520   30.8250   11.0540 C.3    55  CYS55       0.1712
    103  C          2.2100   30.9870   12.3280 C.2    55  CYS55       0.2296
    104  O          1.2610   30.2310   12.5690 O.2    55  CYS55      -0.2864
    105  CB         3.0750   29.3680   10.5730 C.3    55  CYS55       0.0983
    106  SG         2.3610   29.1120    8.9020 S.3    55  CYS55      -0.0798
    107  N         -1.2810   31.0530   11.3150 N.3    58  CYS58      -0.1235
    108  CA        -1.7230   29.9650   10.4560 C.3    58  CYS58       0.1677
    109  C         -2.6090   28.9660   11.1720 C.2    58  CYS58       0.2270
    110  O         -2.4040   28.6860   12.3700 O.2    58  CYS58      -0.2867
    111  CB        -0.5380   29.1880    9.8850 C.3    58  CYS58       0.0956
    112  SG         0.6120   30.1600    8.8950 S.3    58  CYS58      -0.0801
    113  N         -3.0120   24.8800    7.4190 N.3    62  GLN62      -0.1245
    114  CA        -2.0670   25.6930    6.6680 C.3    62  GLN62       0.1566
    115  C         -0.6300   25.3170    6.9740 C.2    62  GLN62       0.2260
    116  O          0.1730   25.2400    6.0590 O.2    62  GLN62      -0.2867
    117  CB        -2.3150   27.1810    6.9230 C.3    62  GLN62       0.0367
    118  CG        -3.6020   27.6710    6.2510 C.3    62  GLN62       0.0905
    119  CD        -4.1460   28.9650    6.8160 C.2    62  GLN62       0.2608
    120  OE1       -3.5720   29.5730    7.7220 O.2    62  GLN62      -0.2717
    121  NE2       -5.2750   29.4030    6.2700 N.am   62  GLN62      -0.0878
    122  N          1.7790   23.6730    4.2340 N.3    66  ALA66      -0.1245
    123  CA         3.0290   24.3440    3.9080 C.3    66  ALA66       0.1562
    124  C          4.1780   23.3380    3.8700 C.2    66  ALA66       0.2260
    125  O          4.9470   23.3040    2.9270 O.2    66  ALA66      -0.2867
    126  CB         3.3170   25.4380    4.9110 C.3    66  ALA66       0.0290
    127  N          6.3460   22.3940    0.5490 N.3    70  ILE70      -0.1245
    128  CA         7.7680   22.6950    0.5850 C.3    70  ILE70       0.1561
    129  C          8.5920   21.4320    0.3640 C.2    70  ILE70       0.2260
    130  O          9.5260   21.4370   -0.4210 O.2    70  ILE70      -0.2867
    131  CB         8.1200   23.3780    1.9040 C.3    70  ILE70       0.0252
    132  CG1        7.5340   24.8040    1.9010 C.3    70  ILE70       0.0019
    133  CG2        9.6370   23.4010    2.1180 C.3    70  ILE70       0.0019
    134  CD1        7.5470   25.4820    3.2210 C.3    70  ILE70       0.0001
    135  N         14.2960   30.2700    7.4460 N.3    94  TRP94      -0.1241
    136  CA        13.7530   28.9220    7.4250 C.3    94  TRP94       0.1605
    137  C         14.3430   27.9490    6.4010 C.2    94  TRP94       0.2264
    138  O         13.9990   26.7710    6.4190 O.2    94  TRP94      -0.2867
    139  CB        12.2250   28.9750    7.2320 C.3    94  TRP94       0.0550
    140  CG        11.5280   29.9080    8.1860 C.ar   94  TRP94       0.0003
    141  CD1       11.0810   31.1770    7.9060 C.ar   94  TRP94       0.0946
    142  CD2       11.1950   29.6610    9.5570 C.ar   94  TRP94       0.0152
    143  NE1       10.5010   31.7320    9.0300 N.ar   94  TRP94      -0.2442
    144  CE2       10.5620   30.8290   10.0570 C.ar   94  TRP94       0.0810
    145  CE3       11.3760   28.5840   10.4190 C.ar   94  TRP94       0.0012
    146  CZ2       10.1070   30.9280   11.3660 C.ar   94  TRP94       0.0191
    147  CZ3       10.8910   28.6880   11.7200 C.ar   94  TRP94       0.0001
    148  CH2       10.2870   29.8480   12.1680 C.ar   94  TRP94       0.0015
    149  N         13.9330   23.7970    6.8030 N.3    98  TYR98      -0.1241
    150  CA        13.0500   23.0230    5.9410 C.3    98  TYR98       0.1605
    151  C         13.8180   22.0090    5.1170 C.2    98  TYR98       0.2264
    152  O         13.3690   20.8950    4.9290 O.2    98  TYR98      -0.2867
    153  CB        12.2230   23.9090    5.0200 C.3    98  TYR98       0.0534
    154  CG        10.9280   24.4410    5.6440 C.ar   98  TYR98      -0.0201
    155  CD1        9.8870   23.5760    5.9740 C.ar   98  TYR98      -0.0009
    156  CD2       10.7270   25.7900    5.8200 C.ar   98  TYR98      -0.0009
    157  CE1        8.7080   24.0450    6.5200 C.ar   98  TYR98       0.0417
    158  CE2        9.5380   26.2830    6.3800 C.ar   98  TYR98       0.0417
    159  CZ         8.5360   25.3930    6.7020 C.ar   98  TYR98       0.1957
    160  OH         7.3590   25.8630    7.2530 O.3    98  TYR98      -0.2866
@<TRIPOS>BOND
     1    47    46   ar
     2    40    41    1
     3    46    48   ar
     4    46    45    1
     5    44    41    1
     6    44    45    1
     7    42    41    1
     8    42    43    2
     9    49    50    1
    10    65    63    1
    11    31    30    1
    12    28    30   ar
    13    28    26   ar
    14    62    63    1
    15    62    59    1
    16    30    29   ar
    17    26    25   ar
    18    63    64    1
    19    58    59    1
    20    58    51   am
    21   130   129    2
    22    50    51    1
    23    50    53    1
    24    60    59    1
    25    60    61    2
    26    83    81    1
    27    51    52    2
    28    29    27   ar
    29    53    54    1
    30    25    27   ar
    31    25    24    1
    32   129   128    1
    33   127   128    1
    34   128   131    1
    35    24    21    1
    36    57    55   ar
    37    81    80    1
    38    81    82    1
    39    23    22    2
    40    80    77    1
    41    21    22    1
    42    21    20    1
    43    54    55    1
    44   132   131    1
    45   132   134    1
    46    55    56   ar
    47   131   133    1
    48    22    32   am
    49    66    67    1
    50    76    77    1
    51    76    68   am
    52    77    78    1
    53   125   124    2
    54    32    33    1
    55    73    75   ar
    56    73    71   ar
    57    34    35    2
    58    34    33    1
    59    96    94    1
    60    78    79    2
    61    67    68    1
    62    67    70    1
    63    68    69    2
    64   124   123    1
    65    75    74   ar
    66   123   122    1
    67   123   126    1
    68    33    36    1
    69    70    71    1
    70    71    72   ar
    71    19    17    1
    72   152   151    2
    73    94    93    1
    74    74    72   ar
    75   153   154    1
    76   153   150    1
    77   151   150    1
    78    38    37   ar
    79    36    37    1
    80    18    17    1
    81   154   156   ar
    82   154   155   ar
    83   156   158   ar
    84    17    14    1
    85    93    95    1
    86    93    90    1
    87   150   149    1
    88   155   157   ar
    89    37    39   ar
    90   116   115    2
    91   118   119    1
    92   118   117    1
    93   121   119   am
    94    16    15    2
    95   158   159   ar
    96   137   138    2
    97   137   136    1
    98   157   159   ar
    99   114   117    1
   100   114   115    1
   101   114   113    1
   102   159   160    1
   103   119   120    2
   104    15    14    1
   105    88    85    1
   106    14    13    1
   107    89    90    1
   108    89    86   am
   109   139   136    1
   110   139   140    1
   111    90    91    1
   112    84    85    1
   113   136   135    1
   114    13     3   am
   115     5     6    1
   116     5     2    1
   117   141   140   ar
   118   141   143   ar
   119    85    86    1
   120     7     6   ar
   121     7     9   ar
   122     6     8   ar
   123     9    11   ar
   124     8    10   ar
   125    86    87    2
   126   140   142   ar
   127    11    10   ar
   128    11    12    1
   129    91    92    2
   130     3     2    1
   131     3     4    2
   132     2     1    1
   133   112   106    1
   134   112   111    1
   135   106   105    1
   136   143   144   ar
   137   142   144   ar
   138   142   145   ar
   139   111   108    1
   140   144   146   ar
   141   145   147   ar
   142   108   109    1
   143   108   107    1
   144   105   102    1
   145   102   101    1
   146   102   103    1
   147   109   110    2
   148   101    99   am
   149   146   148   ar
   150   147   148   ar
   151    97    98    1
   152    98    99    1
   153    99   100    2
   154   103   104    2
