@<TRIPOS>MOLECULE
tmp/1n8wB00.pdb
 68 65 0 0 0
SMALL
GASTEIGER

@<TRIPOS>ATOM
      1  N          1.8160   70.3930   71.8760 N.3   118  PRO118     -0.2116
      2  CA         0.3620   70.2160   71.9180 C.3   118  PRO118      0.1372
      3  C          0.0070   69.1060   72.8940 C.2   118  PRO118      0.2244
      4  O          0.4830   67.9820   72.7100 O.2   118  PRO118     -0.2868
      5  CB         0.0170   69.7820   70.4870 C.3   118  PRO118      0.0268
      6  CG         1.2270   70.0430   69.6770 C.3   118  PRO118      0.0207
      7  CD         2.3920   69.9390   70.5970 C.3   118  PRO118      0.0892
      8  N         -2.8820   67.5400   73.4710 N.3   120  LEU120     -0.1231
      9  CA        -3.7370   66.5560   72.8060 C.3   120  LEU120      0.1693
     10  C         -2.9560   65.3920   72.1880 C.2   120  LEU120      0.2592
     11  O         -3.4950   64.2970   72.0260 O.2   120  LEU120     -0.2718
     12  CB        -4.5830   67.2400   71.7400 C.3   120  LEU120      0.0284
     13  CG        -6.0880   67.3260   72.0020 C.3   120  LEU120      0.0019
     14  CD1       -6.4310   68.0110   73.3150 C.3   120  LEU120      0.0001
     15  CD2       -6.7200   68.0710   70.8620 C.3   120  LEU120      0.0001
     16  N         -1.6880   65.6390   71.8610 N.am  121  ASN121     -0.1974
     17  CA        -0.7720   64.6120   71.3770 C.3   121  ASN121      0.1688
     18  C          0.0470   64.0810   72.5440 C.2   121  ASN121      0.2292
     19  O          0.6270   64.8640   73.2850 O.2   121  ASN121     -0.2864
     20  CB         0.1640   65.2200   70.3260 C.3   121  ASN121      0.1181
     21  CG         0.9850   64.1850   69.5820 C.2   121  ASN121      0.2629
     22  OD1        1.4500   63.1980   70.1550 O.2   121  ASN121     -0.2716
     23  ND2        1.1830   64.4230   68.2920 N.am  121  ASN121     -0.0877
     24  N          4.1960   63.3540   71.5920 N.3   124  PHE124     -0.1241
     25  CA         4.8810   64.6430   71.5850 C.3   124  PHE124      0.1605
     26  C          5.1160   65.1570   73.0040 C.2   124  PHE124      0.2264
     27  O          6.2350   65.5600   73.3420 O.2   124  PHE124     -0.2867
     28  CB         4.0840   65.6650   70.7620 C.3   124  PHE124      0.0534
     29  CG         4.2140   65.4890   69.2790 C.ar  124  PHE124     -0.0203
     30  CD1        3.5030   66.3120   68.4110 C.ar  124  PHE124     -0.0042
     31  CD2        5.0430   64.5040   68.7410 C.ar  124  PHE124     -0.0042
     32  CE1        3.6020   66.1600   67.0120 C.ar  124  PHE124     -0.0003
     33  CE2        5.1580   64.3450   67.3490 C.ar  124  PHE124     -0.0003
     34  CZ         4.4340   65.1830   66.4830 C.ar  124  PHE124     -0.0000
     35  N         -1.6540   75.6740   70.0120 N.3   269  SER269     -0.1202
     36  CA        -1.2280   74.4680   69.3060 C.3   269  SER269      0.2020
     37  C         -2.2050   73.2980   69.3620 C.2   269  SER269      0.2618
     38  O         -1.8500   72.2110   68.9220 O.2   269  SER269     -0.2717
     39  CB         0.1570   74.0110   69.7770 C.3   269  SER269      0.2103
     40  OG         0.1450   73.6490   71.1400 O.3   269  SER269     -0.2182
     41  N         -3.4170   73.4950   69.8890 N.am  270  VAL270     -0.1979
     42  CA        -4.4300   72.4160   69.8770 C.3   270  VAL270      0.1595
     43  C         -5.8610   72.7850   69.4480 C.2   270  VAL270      0.2287
     44  O         -6.2610   73.9550   69.4680 O.2   270  VAL270     -0.2864
     45  CB        -4.5150   71.6300   71.2160 C.3   270  VAL270      0.0276
     46  CG1       -3.1490   71.1250   71.6540 C.3   270  VAL270      0.0022
     47  CG2       -5.1860   72.4570   72.3020 C.3   270  VAL270      0.0022
     48  N         -8.7700   68.1510   63.0820 N.3   604  GLY604     -0.1210
     49  CA        -8.6770   68.6680   64.4370 C.3   604  GLY604      0.1956
     50  C         -7.2530   68.8610   64.9120 C.2   604  GLY604      0.2612
     51  O         -6.9270   68.5470   66.0640 O.2   604  GLY604     -0.2717
     52  N         -6.4120   69.3870   64.0200 N.am  605  VAL605     -0.1965
     53  CA        -4.9820   69.5550   64.2830 C.3   605  VAL605      0.1727
     54  C         -4.6460   71.0190   64.5190 C.2   605  VAL605      0.2617
     55  O         -4.8700   71.8690   63.6590 O.2   605  VAL605     -0.2715
     56  CB        -4.1220   68.9580   63.1380 C.3   605  VAL605      0.0290
     57  CG1       -2.6390   69.1820   63.3880 C.3   605  VAL605      0.0023
     58  CG2       -4.4150   67.4630   62.9770 C.3   605  VAL605      0.0023
     59  N         -4.1000   71.2970   65.6960 N.am  606  GLY606     -0.1940
     60  CA        -3.8720   72.6600   66.1390 C.3   606  GLY606      0.2014
     61  C         -2.5490   73.2610   65.7210 C.2   606  GLY606      0.2639
     62  O         -2.4260   74.4790   65.6220 O.2   606  GLY606     -0.2714
     63  N         -1.5480   72.4210   65.5020 N.am  607  CYS607     -0.1967
     64  CA        -0.2590   72.8970   65.0340 C.3   607  CYS607      0.1712
     65  C          0.1150   72.1230   63.7940 C.2   607  CYS607      0.2296
     66  O          0.0230   70.8950   63.7720 O.2   607  CYS607     -0.2864
     67  CB         0.8100   72.7190   66.1020 C.3   607  CYS607      0.0983
     68  SG         2.3820   73.4750   65.6590 S.3   607  CYS607     -0.0798
@<TRIPOS>BOND
     1    58    56    1
     2    48    49    1
     3    56    57    1
     4    56    53    1
     5    55    54    2
     6    66    65    2
     7    65    64    1
     8    52    53    1
     9    52    50   am
    10    53    54    1
    11    49    50    1
    12    54    59   am
    13    50    51    2
    14    64    63    1
    15    64    67    1
    16    63    61   am
    17    62    61    2
    18    68    67    1
    19    59    60    1
    20    61    60    1
    21    34    32   ar
    22    34    33   ar
    23    32    30   ar
    24    33    31   ar
    25    23    21   am
    26    30    29   ar
    27    31    29   ar
    28    38    37    2
    29    29    28    1
    30    36    37    1
    31    36    39    1
    32    36    35    1
    33    37    41   am
    34    43    44    2
    35    43    42    1
    36    21    22    2
    37    21    20    1
    38     6     5    1
    39     6     7    1
    40    39    40    1
    41    42    41    1
    42    42    45    1
    43    20    17    1
    44     5     2    1
    45     7     1    1
    46    28    25    1
    47    15    13    1
    48    45    46    1
    49    45    47    1
    50    17    16    1
    51    17    18    1
    52    25    24    1
    53    25    26    1
    54    12    13    1
    55    12     9    1
    56    16    10   am
    57     1     2    1
    58     2     3    1
    59    13    14    1
    60    11    10    2
    61    10     9    1
    62    18    19    2
    63     4     3    2
    64     9     8    1
    65    26    27    2
