@<TRIPOS>MOLECULE
tmp/1n94B00.pdb
 155 152 0 0 0
SMALL
GASTEIGER

@<TRIPOS>ATOM
      1  N         57.4350   60.8830    0.8030 N.3    81  TRP81      -0.1241
      2  CA        57.5320   59.9100   -0.2810 C.3    81  TRP81       0.1605
      3  C         56.8880   60.4820   -1.5360 C.2    81  TRP81       0.2264
      4  O         57.4690   60.4160   -2.6280 O.2    81  TRP81      -0.2867
      5  CB        56.8360   58.5890    0.0330 C.3    81  TRP81       0.0550
      6  CG        57.6400   57.6110    0.7920 C.ar   81  TRP81       0.0003
      7  CD1       57.6560   57.4340    2.1360 C.ar   81  TRP81       0.0946
      8  CD2       58.5260   56.6390    0.2460 C.ar   81  TRP81       0.0152
      9  NE1       58.4920   56.4050    2.4670 N.ar   81  TRP81      -0.2442
     10  CE2       59.0430   55.8960    1.3230 C.ar   81  TRP81       0.0810
     11  CE3       58.9340   56.3200   -1.0540 C.ar   81  TRP81       0.0012
     12  CZ2       59.9490   54.8470    1.1490 C.ar   81  TRP81       0.0191
     13  CZ3       59.8450   55.2640   -1.2280 C.ar   81  TRP81       0.0001
     14  CH2       60.3370   54.5450   -0.1280 C.ar   81  TRP81       0.0015
     15  N         61.2780   55.6610    7.0770 N.3   130  ALA130     -0.1245
     16  CA        60.7590   55.5170    5.7240 C.3   130  ALA130      0.1562
     17  C         60.7380   56.9000    5.0990 C.2   130  ALA130      0.2260
     18  O         61.4830   57.1730    4.1620 O.2   130  ALA130     -0.2867
     19  CB        59.3800   54.9190    5.7460 C.3   130  ALA130      0.0290
     20  N         64.0160   58.3510    4.7270 N.3   133  TYR133     -0.1241
     21  CA        64.7410   57.8090    3.5960 C.3   133  TYR133      0.1605
     22  C         64.2640   58.6300    2.4290 C.2   133  TYR133      0.2264
     23  O         65.0330   59.3710    1.8350 O.2   133  TYR133     -0.2867
     24  CB        64.3700   56.3530    3.3880 C.3   133  TYR133      0.0534
     25  CG        64.7190   55.7910    2.0290 C.ar  133  TYR133     -0.0201
     26  CD1       66.0240   55.7990    1.5540 C.ar  133  TYR133     -0.0009
     27  CD2       63.7430   55.1820    1.2470 C.ar  133  TYR133     -0.0009
     28  CE1       66.3410   55.2040    0.3310 C.ar  133  TYR133      0.0417
     29  CE2       64.0480   54.5900    0.0350 C.ar  133  TYR133      0.0417
     30  CZ        65.3400   54.6020   -0.4160 C.ar  133  TYR133      0.1957
     31  OH        65.6180   54.0240   -1.6250 O.3   133  TYR133     -0.2866
     32  N         63.5830   46.2770    5.8460 N.3   181  ARG181     -0.1245
     33  CA        63.1450   47.5920    5.4310 C.3   181  ARG181      0.1563
     34  C         63.8700   48.6430    6.2800 C.2   181  ARG181      0.2260
     35  O         64.3940   49.6340    5.7750 O.2   181  ARG181     -0.2867
     36  CB        61.6350   47.6270    5.6110 C.3   181  ARG181      0.0307
     37  CG        60.9210   48.8220    5.1050 C.3   181  ARG181      0.0489
     38  CD        59.4720   48.4350    4.8960 C.3   181  ARG181      0.2205
     39  NE        58.8880   47.8760    6.1070 N.pl3 181  ARG181     -0.0865
     40  CZ        58.5320   48.5930    7.1640 C.cat 181  ARG181      0.5346
     41  NH1       58.6920   49.9140    7.1640 N.pl3 181  ARG181      0.1354
     42  NH2       58.0410   47.9810    8.2300 N.pl3 181  ARG181      0.1354
     43  N         67.9110   48.9650    5.5780 N.3   184  TYR184     -0.1227
     44  CA        68.1450   49.5880    4.2730 C.3   184  TYR184      0.1736
     45  C         68.0430   51.0900    4.3490 C.2   184  TYR184      0.2595
     46  O         68.8490   51.8020    3.7760 O.2   184  TYR184     -0.2718
     47  CB        67.1660   49.0650    3.2200 C.3   184  TYR184      0.0548
     48  CG        67.2870   49.7970    1.9070 C.ar  184  TYR184     -0.0200
     49  CD1       68.5320   50.0000    1.3180 C.ar  184  TYR184     -0.0009
     50  CD2       66.1610   50.2900    1.2510 C.ar  184  TYR184     -0.0009
     51  CE1       68.6590   50.6780    0.1090 C.ar  184  TYR184      0.0417
     52  CE2       66.2730   50.9710    0.0390 C.ar  184  TYR184      0.0417
     53  CZ        67.5280   51.1620   -0.5260 C.ar  184  TYR184      0.1957
     54  OH        67.6570   51.8400   -1.7160 O.3   184  TYR184     -0.2866
     55  N         67.0400   51.5730    5.0600 N.am  185  CYS185     -0.1970
     56  CA        66.8860   53.0030    5.2100 C.3   185  CYS185      0.1712
     57  C         68.1040   53.5450    5.9510 C.2   185  CYS185      0.2296
     58  O         68.7700   54.4380    5.4570 O.2   185  CYS185     -0.2864
     59  CB        65.5870   53.3250    5.9610 C.3   185  CYS185      0.0983
     60  SG        64.0850   52.7290    5.1120 S.3   185  CYS185     -0.0798
     61  N         60.4250   34.6350    8.1660 N.3   224  MET224     -0.1245
     62  CA        59.3470   35.0380    7.2840 C.3   224  MET224      0.1570
     63  C         59.6360   34.7650    5.8260 C.2   224  MET224      0.2261
     64  O         60.7590   34.9210    5.3570 O.2   224  MET224     -0.2867
     65  CB        59.0030   36.5150    7.4750 C.3   224  MET224      0.0387
     66  CG        58.0280   36.7220    8.5960 C.3   224  MET224      0.0595
     67  SD        56.5140   35.7810    8.2410 S.3   224  MET224     -0.1393
     68  CE        55.9480   36.6230    6.7510 C.3   224  MET224      0.0692
     69  N         60.5290   37.4790    0.1780 N.3   227  HIS227     -0.1241
     70  CA        59.7630   38.5660   -0.4080 C.3   227  HIS227      0.1621
     71  C         60.7160   39.4990   -1.1210 C.2   227  HIS227      0.2264
     72  O         61.7520   39.8840   -0.5670 O.2   227  HIS227     -0.2867
     73  CB        58.9920   39.3070    0.6920 C.3   227  HIS227      0.0745
     74  CG        58.1370   40.4270    0.1910 C.ar  227  HIS227      0.0817
     75  ND1       58.6530   41.6440   -0.1920 N.ar  227  HIS227     -0.2268
     76  CD2       56.8000   40.5020   -0.0160 C.ar  227  HIS227      0.1154
     77  CE1       57.6720   42.4210   -0.6140 C.ar  227  HIS227      0.1986
     78  NE2       56.5380   41.7520   -0.5170 N.ar  227  HIS227     -0.2212
     79  N         60.5020   42.7780   -2.0520 N.3   229  GLY229     -0.1210
     80  CA        60.7560   44.0980   -1.5260 C.3   229  GLY229      0.1956
     81  C         61.7960   44.0900   -0.4320 C.2   229  GLY229      0.2611
     82  O         62.7520   44.8530   -0.4640 O.2   229  GLY229     -0.2717
     83  N         61.5960   43.2240    0.5480 N.am  230  TYR230     -0.1976
     84  CA        62.5140   43.1220    1.6670 C.3   230  TYR230      0.1639
     85  C         63.8690   42.6680    1.1660 C.2   230  TYR230      0.2290
     86  O         64.9050   43.2150    1.5560 O.2   230  TYR230     -0.2864
     87  CB        61.9640   42.1350    2.6890 C.3   230  TYR230      0.0560
     88  CG        60.7440   42.6320    3.4190 C.ar  230  TYR230     -0.0198
     89  CD1       60.8100   43.7710    4.2100 C.ar  230  TYR230     -0.0009
     90  CD2       59.5320   41.9580    3.3360 C.ar  230  TYR230     -0.0009
     91  CE1       59.7140   44.2300    4.9000 C.ar  230  TYR230      0.0417
     92  CE2       58.4240   42.4160    4.0290 C.ar  230  TYR230      0.0417
     93  CZ        58.5270   43.5520    4.8070 C.ar  230  TYR230      0.1957
     94  OH        57.4430   44.0210    5.4950 O.3   230  TYR230     -0.2866
     95  N         65.8800   45.2430   -0.0520 N.3   233  CYS233     -0.1235
     96  CA        66.3430   45.9500    1.1320 C.3   233  CYS233      0.1677
     97  C         67.5510   45.2890    1.7000 C.2   233  CYS233      0.2270
     98  O         68.6010   45.9020    1.8360 O.2   233  CYS233     -0.2867
     99  CB        65.2690   45.9920    2.2140 C.3   233  CYS233      0.0956
    100  SG        63.8790   47.0570    1.8470 S.3   233  CYS233     -0.0801
    101  N         56.5010   37.1320   -4.5140 N.3   270  ARG270     -0.1245
    102  CA        56.6320   35.8790   -3.7830 C.3   270  ARG270      0.1563
    103  C         56.1320   34.6770   -4.5850 C.2   270  ARG270      0.2260
    104  O         55.1160   34.7690   -5.2880 O.2   270  ARG270     -0.2867
    105  CB        55.8520   35.9430   -2.4700 C.3   270  ARG270      0.0307
    106  CG        56.3910   36.8770   -1.4020 C.3   270  ARG270      0.0489
    107  CD        55.5110   36.7990   -0.1460 C.3   270  ARG270      0.2205
    108  NE        54.1790   37.3380   -0.3920 N.pl3 270  ARG270     -0.0865
    109  CZ        53.1670   37.2870    0.4640 C.cat 270  ARG270      0.5346
    110  NH1       53.3110   36.7140    1.6450 N.pl3 270  ARG270      0.1354
    111  NH2       52.0080   37.8340    0.1390 N.pl3 270  ARG270      0.1354
    112  N         55.4880   47.1890   -9.8040 N.3   278  CYS278     -0.1221
    113  CA        56.5090   47.7510   -8.9160 C.3   278  CYS278      0.1808
    114  C         57.6530   46.7980   -8.6630 C.2   278  CYS278      0.2601
    115  O         58.8010   47.2230   -8.5210 O.2   278  CYS278     -0.2717
    116  CB        55.9260   48.2040   -7.5800 C.3   278  CYS278      0.0970
    117  SG        55.5200   46.8830   -6.4980 S.3   278  CYS278     -0.0800
    118  N         57.3490   45.5080   -8.6180 N.am  279  TYR279     -0.1976
    119  CA        58.3970   44.5270   -8.3920 C.3   279  TYR279      0.1639
    120  C         59.3520   44.4570   -9.5790 C.2   279  TYR279      0.2290
    121  O         60.4080   43.8370   -9.4940 O.2   279  TYR279     -0.2864
    122  CB        57.7970   43.1480   -8.1090 C.3   279  TYR279      0.0560
    123  CG        57.1220   43.0460   -6.7620 C.ar  279  TYR279     -0.0198
    124  CD1       57.8100   43.3680   -5.5890 C.ar  279  TYR279     -0.0009
    125  CD2       55.8080   42.6030   -6.6510 C.ar  279  TYR279     -0.0009
    126  CE1       57.2030   43.2450   -4.3330 C.ar  279  TYR279      0.0417
    127  CE2       55.1930   42.4770   -5.4030 C.ar  279  TYR279      0.0417
    128  CZ        55.8970   42.7970   -4.2510 C.ar  279  TYR279      0.1957
    129  OH        55.3040   42.6330   -3.0250 O.3   279  TYR279     -0.2866
    130  N         61.9250   45.9770   -7.7370 N.3   282  TRP282     -0.1241
    131  CA        62.1990   45.2610   -6.5140 C.3   282  TRP282      0.1605
    132  C         62.9070   43.9740   -6.7770 C.2   282  TRP282      0.2264
    133  O         63.8610   43.6440   -6.0900 O.2   282  TRP282     -0.2867
    134  CB        60.8940   44.9810   -5.7730 C.3   282  TRP282      0.0550
    135  CG        60.3700   46.1910   -5.1160 C.ar  282  TRP282      0.0003
    136  CD1       59.0730   46.5760   -5.0280 C.ar  282  TRP282      0.0946
    137  CD2       61.1420   47.2070   -4.4670 C.ar  282  TRP282      0.0152
    138  NE1       58.9800   47.7810   -4.3690 N.ar  282  TRP282     -0.2442
    139  CE2       60.2380   48.1900   -4.0140 C.ar  282  TRP282      0.0810
    140  CE3       62.5100   47.3820   -4.2270 C.ar  282  TRP282      0.0012
    141  CZ2       60.6540   49.3320   -3.3370 C.ar  282  TRP282      0.0191
    142  CZ3       62.9240   48.5140   -3.5540 C.ar  282  TRP282      0.0001
    143  CH2       61.9990   49.4780   -3.1150 C.ar  282  TRP282      0.0015
    144  N         53.2620   55.7490   -6.6110 N.3   340  TYR340     -0.1241
    145  CA        54.2080   54.7300   -6.1620 C.3   340  TYR340      0.1605
    146  C         54.5930   53.9660   -7.4160 C.2   340  TYR340      0.2264
    147  O         55.7020   54.1210   -7.9420 O.2   340  TYR340     -0.2867
    148  CB        53.5520   53.7650   -5.1710 C.3   340  TYR340      0.0534
    149  CG        54.3310   52.4790   -4.8420 C.ar  340  TYR340     -0.0201
    150  CD1       55.4750   52.4930   -4.0410 C.ar  340  TYR340     -0.0009
    151  CD2       53.8580   51.2310   -5.2770 C.ar  340  TYR340     -0.0009
    152  CE1       56.1110   51.2890   -3.6760 C.ar  340  TYR340      0.0417
    153  CE2       54.4920   50.0330   -4.9150 C.ar  340  TYR340      0.0417
    154  CZ        55.6060   50.0710   -4.1170 C.ar  340  TYR340      0.1957
    155  OH        56.1820   48.8860   -3.7490 O.3   340  TYR340     -0.2866
@<TRIPOS>BOND
     1   112   113    1
     2   120   121    2
     3   120   119    1
     4   113   114    1
     5   113   116    1
     6   114   118   am
     7   114   115    2
     8   118   119    1
     9   119   122    1
    10   122   123    1
    11   147   146    2
    12   130   131    1
    13   116   117    1
    14   146   145    1
    15   132   131    1
    16   132   133    2
    17   123   125   ar
    18   123   124   ar
    19   125   127   ar
    20   144   145    1
    21   131   134    1
    22   145   148    1
    23   134   135    1
    24   124   126   ar
    25   127   128   ar
    26   104   103    2
    27   151   153   ar
    28   151   149   ar
    29   148   149    1
    30   135   136   ar
    31   135   137   ar
    32   136   138   ar
    33   153   154   ar
    34   149   150   ar
    35   103   102    1
    36   101   102    1
    37   137   140   ar
    38   137   139   ar
    39   138   139   ar
    40   126   128   ar
    41   128   129    1
    42   140   142   ar
    43   154   155    1
    44   154   152   ar
    45   150   152   ar
    46   139   141   ar
    47   102   105    1
    48   142   143   ar
    49   141   143   ar
    50     4     3    2
    51   105   106    1
    52    79    80    1
    53    54    53    1
    54    31    30    1
    55     3     2    1
    56    80    81    1
    57   106   107    1
    58    13    11   ar
    59    13    14   ar
    60    71    72    2
    61    71    70    1
    62    11     8   ar
    63    77    78   ar
    64    77    75   ar
    65    53    52   ar
    66    53    51   ar
    67    78    76   ar
    68    82    81    2
    69    81    83   am
    70    30    29   ar
    71    30    28   ar
    72    70    69    1
    73    70    73    1
    74   108   107    1
    75   108   109    2
    76     2     5    1
    77     2     1    1
    78    75    74   ar
    79    14    12   ar
    80    95    96    1
    81    76    74   ar
    82     5     6    1
    83    29    27   ar
    84    52    50   ar
    85    51    49   ar
    86   111   109    1
    87    74    73    1
    88     8     6   ar
    89     8    10   ar
    90    28    26   ar
    91   109   110    1
    92    83    84    1
    93     6     7   ar
    94    96    97    1
    95    96    99    1
    96    12    10   ar
    97    85    86    2
    98    85    84    1
    99    27    25   ar
   100    50    48   ar
   101    49    48   ar
   102    10     9   ar
   103    26    25   ar
   104    84    87    1
   105    97    98    2
   106    23    22    2
   107   100    99    1
   108    48    47    1
   109    25    24    1
   110     7     9   ar
   111    22    21    1
   112    87    88    1
   113    47    44    1
   114    90    88   ar
   115    90    92   ar
   116    24    21    1
   117    88    89   ar
   118    21    20    1
   119    46    45    2
   120    92    93   ar
   121    18    17    2
   122    89    91   ar
   123    44    45    1
   124    44    43    1
   125    45    55   am
   126    93    91   ar
   127    93    94    1
   128    38    37    1
   129    38    39    1
   130    55    56    1
   131    17    16    1
   132    37    36    1
   133    60    59    1
   134    56    57    1
   135    56    59    1
   136    64    63    2
   137    33    36    1
   138    33    32    1
   139    33    34    1
   140    58    57    2
   141    16    19    1
   142    16    15    1
   143    35    34    2
   144    63    62    1
   145    39    40    2
   146    68    67    1
   147    41    40    1
   148    40    42    1
   149    62    65    1
   150    62    61    1
   151    65    66    1
   152    67    66    1
