@<TRIPOS>MOLECULE
tmp/1n95B01.pdb
 182 179 0 0 0
SMALL
GASTEIGER

@<TRIPOS>ATOM
      1  N         43.2560   60.6320   -1.4090 N.3    71  TYR71      -0.1241
      2  CA        44.6130   60.4690   -0.9030 C.3    71  TYR71       0.1605
      3  C         44.7340   60.8120    0.5920 C.2    71  TYR71       0.2264
      4  O         45.8360   61.0630    1.1070 O.2    71  TYR71      -0.2867
      5  CB        45.5710   61.3230   -1.7250 C.3    71  TYR71       0.0534
      6  CG        46.1590   60.5730   -2.9030 C.ar   71  TYR71      -0.0201
      7  CD1       45.5800   60.6260   -4.1690 C.ar   71  TYR71      -0.0009
      8  CD2       47.2210   59.7050   -2.7120 C.ar   71  TYR71      -0.0009
      9  CE1       46.0340   59.8230   -5.2020 C.ar   71  TYR71       0.0417
     10  CE2       47.6800   58.9030   -3.7400 C.ar   71  TYR71       0.0417
     11  CZ        47.0860   58.9520   -4.9820 C.ar   71  TYR71       0.1957
     12  OH        47.5270   58.1100   -5.9800 O.3    71  TYR71      -0.2866
     13  N         44.2660   58.7550    2.7390 N.3    73  CYS73      -0.1221
     14  CA        44.8700   57.5140    3.2710 C.3    73  CYS73       0.1808
     15  C         46.4100   57.4700    3.2340 C.2    73  CYS73       0.2601
     16  O         47.0490   56.5830    3.7940 O.2    73  CYS73      -0.2717
     17  CB        44.2960   56.2830    2.5490 C.3    73  CYS73       0.0970
     18  SG        44.7430   56.0710    0.7830 S.3    73  CYS73      -0.0800
     19  N         47.0020   58.4320    2.5460 N.am   74  LEU74      -0.1979
     20  CA        48.4480   58.5170    2.4220 C.3    74  LEU74       0.1596
     21  C         48.8700   59.8470    3.0120 C.2    74  LEU74       0.2287
     22  O         49.9000   60.4070    2.6540 O.2    74  LEU74      -0.2864
     23  CB        48.8510   58.4510    0.9600 C.3    74  LEU74       0.0297
     24  CG        48.9010   57.0480    0.3990 C.3    74  LEU74       0.0022
     25  CD1       49.1280   57.2010   -1.0280 C.3    74  LEU74       0.0001
     26  CD2       50.0090   56.2140    1.0530 C.3    74  LEU74       0.0001
     27  N         52.1750   59.8230    4.4700 N.3    77  SER77      -0.1217
     28  CA        53.2030   59.3840    3.5170 C.3    77  SER77       0.1889
     29  C         53.4670   60.4730    2.5060 C.2    77  SER77       0.2288
     30  O         53.7020   60.1920    1.3450 O.2    77  SER77      -0.2866
     31  CB        52.7260   58.1350    2.7560 C.3    77  SER77       0.2089
     32  OG        52.3300   57.1080    3.6540 O.3    77  SER77      -0.2183
     33  N         56.6320   60.5450    0.5430 N.3    80  TRP80      -0.1227
     34  CA        56.6070   59.4810   -0.4270 C.3    80  TRP80       0.1737
     35  C         55.9720   60.0010   -1.7000 C.2    80  TRP80       0.2595
     36  O         56.4510   59.6920   -2.7970 O.2    80  TRP80      -0.2718
     37  CB        55.7940   58.2940    0.0810 C.3    80  TRP80       0.0564
     38  CG        56.5450   57.3460    0.9340 C.ar   80  TRP80       0.0003
     39  CD1       56.4090   57.1730    2.2770 C.ar   80  TRP80       0.0946
     40  CD2       57.5300   56.4040    0.5070 C.ar   80  TRP80       0.0152
     41  NE1       57.2430   56.1750    2.7230 N.ar   80  TRP80      -0.2442
     42  CE2       57.9440   55.6810    1.6560 C.ar   80  TRP80       0.0810
     43  CE3       58.1040   56.0940   -0.7300 C.ar   80  TRP80       0.0012
     44  CZ2       58.9090   54.6610    1.6000 C.ar   80  TRP80       0.0191
     45  CZ3       59.0720   55.0680   -0.7830 C.ar   80  TRP80       0.0001
     46  CH2       59.4570   54.3690    0.3780 C.ar   80  TRP80       0.0015
     47  N         54.9020   60.7850   -1.5780 N.am   81  LEU81      -0.1980
     48  CA        54.2560   61.2900   -2.7690 C.3    81  LEU81       0.1596
     49  C         55.2460   62.1730   -3.5360 C.2    81  LEU81       0.2287
     50  O         55.2630   62.1720   -4.7600 O.2    81  LEU81      -0.2864
     51  CB        52.9380   61.9750   -2.4020 C.3    81  LEU81       0.0297
     52  CG        51.9330   60.9010   -1.9510 C.3    81  LEU81       0.0022
     53  CD1       50.8670   61.5220   -1.0750 C.3    81  LEU81       0.0001
     54  CD2       51.2890   60.2180   -3.1770 C.3    81  LEU81       0.0001
     55  N         57.8040   59.5920   -5.2280 N.3    84  TRP84      -0.1241
     56  CA        57.2340   58.8530   -6.3450 C.3    84  TRP84       0.1605
     57  C         57.0440   59.7420   -7.5830 C.2    84  TRP84       0.2264
     58  O         57.3940   59.3410   -8.6970 O.2    84  TRP84      -0.2867
     59  CB        55.8950   58.2360   -5.9510 C.3    84  TRP84       0.0550
     60  CG        55.9430   57.2110   -4.8490 C.ar   84  TRP84       0.0003
     61  CD1       56.9270   56.2890   -4.6060 C.ar   84  TRP84       0.0946
     62  CD2       54.9380   56.9910   -3.8480 C.ar   84  TRP84       0.0152
     63  NE1       56.5950   55.5210   -3.5110 N.ar   84  TRP84      -0.2442
     64  CE2       55.3790   55.9310   -3.0330 C.ar   84  TRP84       0.0810
     65  CE3       53.6990   57.5860   -3.5630 C.ar   84  TRP84       0.0012
     66  CZ2       54.6240   55.4560   -1.9510 C.ar   84  TRP84       0.0191
     67  CZ3       52.9620   57.1150   -2.4910 C.ar   84  TRP84       0.0001
     68  CH2       53.4250   56.0650   -1.7010 C.ar   84  TRP84       0.0015
     69  N         60.5340   55.2280    6.8830 N.3   129  ALA129     -0.1245
     70  CA        60.0270   55.1480    5.5170 C.3   129  ALA129      0.1562
     71  C         60.0010   56.5740    4.9070 C.2   129  ALA129      0.2260
     72  O         60.4930   56.7560    3.8100 O.2   129  ALA129     -0.2867
     73  CB        58.6340   54.4730    5.4710 C.3   129  ALA129      0.0290
     74  N         62.7980   46.6850    6.1560 N.3   180  ARG180     -0.1245
     75  CA        62.7000   48.0050    5.5600 C.3   180  ARG180      0.1563
     76  C         63.5500   48.9820    6.3610 C.2   180  ARG180      0.2260
     77  O         64.1840   49.8620    5.7960 O.2   180  ARG180     -0.2867
     78  CB        61.2540   48.5140    5.5710 C.3   180  ARG180      0.0307
     79  CG        60.1990   47.7360    4.7540 C.3   180  ARG180      0.0489
     80  CD        58.7740   48.3240    5.0110 C.3   180  ARG180      0.2205
     81  NE        58.3450   48.1240    6.3950 N.pl3 180  ARG180     -0.0865
     82  CZ        57.6070   48.9760    7.1070 C.cat 180  ARG180      0.5346
     83  NH1       57.2860   48.6650    8.3490 N.pl3 180  ARG180      0.1354
     84  NH2       57.1640   50.1170    6.5910 N.pl3 180  ARG180      0.1354
     85  N         60.9420   42.8600    0.5070 N.3   229  TYR229     -0.1241
     86  CA        61.8400   42.6940    1.6360 C.3   229  TYR229      0.1605
     87  C         63.1790   42.1910    1.1500 C.2   229  TYR229      0.2264
     88  O         64.2170   42.5020    1.7390 O.2   229  TYR229     -0.2867
     89  CB        61.2400   41.7410    2.6610 C.3   229  TYR229      0.0534
     90  CG        60.1000   42.3290    3.4760 C.ar  229  TYR229     -0.0201
     91  CD1       58.9140   41.6290    3.6650 C.ar  229  TYR229     -0.0009
     92  CD2       60.2020   43.5860    4.0590 C.ar  229  TYR229     -0.0009
     93  CE1       57.8640   42.1670    4.3980 C.ar  229  TYR229      0.0417
     94  CE2       59.1620   44.1160    4.8030 C.ar  229  TYR229      0.0417
     95  CZ        58.0070   43.3980    4.9590 C.ar  229  TYR229      0.1957
     96  OH        56.9960   43.9470    5.6970 O.3   229  TYR229     -0.2866
     97  N         52.4080   41.7030  -10.2870 N.3   275  ASP275     -0.1239
     98  CA        52.0870   43.0470   -9.8250 C.3   275  ASP275      0.1674
     99  C         53.1730   43.9910  -10.3080 C.2   275  ASP275      0.2266
    100  O         54.3450   43.7970  -10.0120 O.2   275  ASP275     -0.2867
    101  CB        51.9800   43.1080   -8.3130 C.3   275  ASP275      0.1410
    102  CG        51.6860   44.5200   -7.8120 C.2   275  ASP275      0.3668
    103  OD1       51.6300   45.4620   -8.6220 O.co2 275  ASP275     -0.2456
    104  OD2       51.5060   44.6990   -6.5960 O.co2 275  ASP275     -0.2456
    105  N         54.4320   46.8160   -9.4260 N.3   277  CYS277     -0.1235
    106  CA        55.4350   47.4540   -8.5730 C.3   277  CYS277      0.1677
    107  C         56.6330   46.5130   -8.3980 C.2   277  CYS277      0.2270
    108  O         57.7420   46.9410   -8.1030 O.2   277  CYS277     -0.2867
    109  CB        54.8470   47.8380   -7.2060 C.3   277  CYS277      0.0956
    110  SG        54.0710   46.5050   -6.2370 S.3   277  CYS277     -0.0801
    111  N         60.9860   45.9510   -7.4220 N.3   281  TRP281     -0.1241
    112  CA        61.4590   45.2850   -6.2190 C.3   281  TRP281      0.1605
    113  C         62.1270   43.9370   -6.5490 C.2   281  TRP281      0.2264
    114  O         63.1420   43.5840   -5.9740 O.2   281  TRP281     -0.2867
    115  CB        60.3200   45.1100   -5.2110 C.3   281  TRP281      0.0550
    116  CG        59.6440   46.4140   -4.7180 C.ar  281  TRP281      0.0003
    117  CD1       58.3240   46.7140   -4.8260 C.ar  281  TRP281      0.0946
    118  CD2       60.2440   47.5210   -4.0090 C.ar  281  TRP281      0.0152
    119  NE1       58.0490   47.9180   -4.2290 N.ar  281  TRP281     -0.2442
    120  CE2       59.2080   48.4410   -3.7250 C.ar  281  TRP281      0.0810
    121  CE3       61.5400   47.8190   -3.5910 C.ar  281  TRP281      0.0012
    122  CZ2       59.4310   49.6430   -3.0450 C.ar  281  TRP281      0.0191
    123  CZ3       61.7650   49.0320   -2.8970 C.ar  281  TRP281      0.0001
    124  CH2       60.7080   49.9240   -2.6380 C.ar  281  TRP281      0.0015
    125  N         49.0600   48.2760  -10.9780 N.3   330  ASP330     -0.1239
    126  CA        49.3300   46.9000  -10.5630 C.3   330  ASP330      0.1674
    127  C         49.1960   45.9470  -11.7390 C.2   330  ASP330      0.2266
    128  O         50.1680   45.3550  -12.1900 O.2   330  ASP330     -0.2867
    129  CB        48.3420   46.5470   -9.4400 C.3   330  ASP330      0.1410
    130  CG        48.4120   45.0980   -8.9960 C.2   330  ASP330      0.3668
    131  OD1       48.8370   44.2110   -9.7750 O.co2 330  ASP330     -0.2456
    132  OD2       48.0170   44.8740   -7.8300 O.co2 330  ASP330     -0.2456
    133  N         43.0750   47.1430  -11.9710 N.3   334  LYS334     -0.1245
    134  CA        43.5290   47.8510  -10.7800 C.3   334  LYS334      0.1561
    135  C         43.5360   49.3520  -11.0530 C.2   334  LYS334      0.2260
    136  O         43.6370   49.7610  -12.2020 O.2   334  LYS334     -0.2867
    137  CB        44.9480   47.3870  -10.4410 C.3   334  LYS334      0.0271
    138  CG        45.0270   45.9220  -10.1200 C.3   334  LYS334      0.0035
    139  CD        44.1690   45.6480   -8.8840 C.3   334  LYS334      0.0206
    140  CE        44.4960   44.3140   -8.2210 C.3   334  LYS334      0.1093
    141  NZ        44.1640   44.3960   -6.7520 N.3   334  LYS334     -0.1314
    142  N         47.9870   54.8430   -9.3400 N.3   337  ASP337     -0.1225
    143  CA        48.5120   55.5820   -8.2090 C.3   337  ASP337      0.1805
    144  C         49.9830   55.8600   -8.4610 C.2   337  ASP337      0.2598
    145  O         50.6110   55.2470   -9.3060 O.2   337  ASP337     -0.2718
    146  CB        48.2950   54.8290   -6.8960 C.3   337  ASP337      0.1424
    147  CG        48.9140   53.4590   -6.8910 C.2   337  ASP337      0.3668
    148  OD1       50.1400   53.3440   -6.7140 O.co2 337  ASP337     -0.2456
    149  OD2       48.1430   52.4960   -7.0480 O.co2 337  ASP337     -0.2456
    150  N         50.5270   56.8100   -7.7250 N.am  338  PHE338     -0.1962
    151  CA        51.9120   57.2200   -7.8520 C.3   338  PHE338      0.1771
    152  C         52.9280   56.1880   -7.4350 C.2   338  PHE338      0.2620
    153  O         54.0810   56.2650   -7.8620 O.2   338  PHE338     -0.2715
    154  CB        52.0980   58.5150   -7.0830 C.3   338  PHE338      0.0574
    155  CG        51.0840   59.5650   -7.4420 C.ar  338  PHE338     -0.0200
    156  CD1       50.1700   60.0200   -6.5080 C.ar  338  PHE338     -0.0042
    157  CD2       50.9910   60.0410   -8.7450 C.ar  338  PHE338     -0.0042
    158  CE1       49.1850   60.9230   -6.8730 C.ar  338  PHE338     -0.0003
    159  CE2       50.0150   60.9380   -9.1100 C.ar  338  PHE338     -0.0003
    160  CZ        49.1060   61.3770   -8.1740 C.ar  338  PHE338     -0.0000
    161  N         52.5170   55.2350   -6.6040 N.am  339  TYR339     -0.1960
    162  CA        53.4330   54.1970   -6.1530 C.3   339  TYR339      0.1771
    163  C         53.7350   53.2360   -7.2980 C.2   339  TYR339      0.2619
    164  O         54.8900   52.9330   -7.5850 O.2   339  TYR339     -0.2715
    165  CB        52.8360   53.4640   -4.9490 C.3   339  TYR339      0.0574
    166  CG        53.4620   52.1290   -4.6620 C.ar  339  TYR339     -0.0198
    167  CD1       54.6800   52.0320   -3.9870 C.ar  339  TYR339     -0.0009
    168  CD2       52.8510   50.9720   -5.1020 C.ar  339  TYR339     -0.0009
    169  CE1       55.2750   50.7890   -3.7600 C.ar  339  TYR339      0.0417
    170  CE2       53.4350   49.7320   -4.8910 C.ar  339  TYR339      0.0417
    171  CZ        54.6480   49.6440   -4.2240 C.ar  339  TYR339      0.1957
    172  OH        55.2360   48.4060   -4.0880 O.3   339  TYR339     -0.2866
    173  N         52.6950   52.7750   -7.9830 N.am  340  HIS340     -0.1973
    174  CA        52.8770   51.8770   -9.1060 C.3   340  HIS340      0.1656
    175  C         53.4480   52.6650  -10.2770 C.2   340  HIS340      0.2291
    176  O         54.1660   52.1290  -11.1080 O.2   340  HIS340     -0.2864
    177  CB        51.5540   51.2410   -9.4740 C.3   340  HIS340      0.0771
    178  CG        51.1270   50.1670   -8.5330 C.ar  340  HIS340      0.0820
    179  ND1       50.1850   50.3810   -7.5500 N.ar  340  HIS340     -0.2267
    180  CD2       51.5400   48.8820   -8.3940 C.ar  340  HIS340      0.1154
    181  CE1       50.0380   49.2770   -6.8380 C.ar  340  HIS340      0.1986
    182  NE2       50.8490   48.3520   -7.3280 N.ar  340  HIS340     -0.2212
@<TRIPOS>BOND
     1   136   135    2
     2   128   127    2
     3   133   134    1
     4   127   126    1
     5   176   175    2
     6   135   134    1
     7   125   126    1
     8   134   137    1
     9   126   129    1
    10   137   138    1
    11    99   100    2
    12    99    98    1
    13    97    98    1
    14   175   174    1
    15   138   139    1
    16    98   101    1
    17   131   130   ar
    18   177   174    1
    19   177   178    1
    20   129   130    1
    21   105   106    1
    22   142   143    1
    23   145   144    2
    24   159   157   ar
    25   159   160   ar
    26   174   173    1
    27   130   132   ar
    28   139   140    1
    29   157   155   ar
    30    58    57    2
    31   103   102   ar
    32   106   107    1
    33   106   109    1
    34   178   180   ar
    35   178   179   ar
    36   144   143    1
    37   144   150   am
    38   107   108    2
    39   180   182   ar
    40   101   102    1
    41   140   141    1
    42   143   146    1
    43   160   158   ar
    44   173   163   am
    45   153   152    2
    46   151   150    1
    47   151   152    1
    48   151   154    1
    49   102   104   ar
    50   164   163    2
    51    57    56    1
    52   179   181   ar
    53   155   154    1
    54   155   156   ar
    55   152   161   am
    56   111   112    1
    57   182   181   ar
    58   163   162    1
    59   109   110    1
    60   149   147   ar
    61   146   147    1
    62   147   148   ar
    63   158   156   ar
    64   161   162    1
    65   113   112    1
    66   113   114    2
    67    56    59    1
    68    56    55    1
    69   112   115    1
    70   162   165    1
    71    12    11    1
    72    59    60    1
    73   115   116    1
    74     9    11   ar
    75     9     7   ar
    76   168   170   ar
    77   168   166   ar
    78    11    10   ar
    79   165   166    1
    80   170   171   ar
    81    60    61   ar
    82    60    62   ar
    83   117   116   ar
    84   117   119   ar
    85    50    49    2
    86   116   118   ar
    87   166   167   ar
    88    61    63   ar
    89   119   120   ar
    90   171   172    1
    91   171   169   ar
    92     7     6   ar
    93   118   120   ar
    94   118   121   ar
    95   167   169   ar
    96    62    65   ar
    97    62    64   ar
    98    10     8   ar
    99   120   122   ar
   100   121   123   ar
   101    65    67   ar
   102    49    48    1
   103    63    64   ar
   104    54    52    1
   105   122   124   ar
   106    64    66   ar
   107     6     8   ar
   108     6     5    1
   109   123   124   ar
   110    36    35    2
   111    48    51    1
   112    48    47    1
   113    67    68   ar
   114    51    52    1
   115    66    68   ar
   116    52    53    1
   117     5     2    1
   118    35    47   am
   119    35    34    1
   120     1     2    1
   121    25    24    1
   122     2     3    1
   123    45    43   ar
   124    45    46   ar
   125    43    40   ar
   126    34    37    1
   127    34    33    1
   128    37    38    1
   129    46    44   ar
   130    24    23    1
   131    24    26    1
   132    40    38   ar
   133    40    42   ar
   134    85    86    1
   135     3     4    2
   136    18    17    1
   137    38    39   ar
   138    23    20    1
   139    87    86    1
   140    87    88    2
   141    30    29    2
   142    44    42   ar
   143    86    89    1
   144    42    41   ar
   145    39    41   ar
   146    20    19    1
   147    20    21    1
   148    29    28    1
   149    19    15   am
   150    17    14    1
   151    22    21    2
   152    89    90    1
   153    13    14    1
   154    31    28    1
   155    31    32    1
   156    15    14    1
   157    15    16    2
   158    90    91   ar
   159    90    92   ar
   160    28    27    1
   161    91    93   ar
   162    72    71    2
   163    92    94   ar
   164    93    95   ar
   165    79    80    1
   166    79    78    1
   167    94    95   ar
   168    71    70    1
   169    95    96    1
   170    80    81    1
   171    73    70    1
   172    70    69    1
   173    75    78    1
   174    75    74    1
   175    75    76    1
   176    77    76    2
   177    81    82    2
   178    84    82    1
   179    82    83    1
