@<TRIPOS>MOLECULE
tmp/1n9aB01.pdb
 169 168 0 0 0
SMALL
GASTEIGER

@<TRIPOS>ATOM
      1  N         43.2380   60.6230   -1.3990 N.3    71  TYR71      -0.1241
      2  CA        44.5990   60.4670   -0.8970 C.3    71  TYR71       0.1605
      3  C         44.7180   60.8030    0.5910 C.2    71  TYR71       0.2264
      4  O         45.8110   61.0800    1.1020 O.2    71  TYR71      -0.2867
      5  CB        45.5620   61.3200   -1.7300 C.3    71  TYR71       0.0534
      6  CG        46.1470   60.5610   -2.9140 C.ar   71  TYR71      -0.0201
      7  CD1       45.5760   60.6230   -4.1840 C.ar   71  TYR71      -0.0009
      8  CD2       47.1980   59.6780   -2.7240 C.ar   71  TYR71      -0.0009
      9  CE1       46.0250   59.8230   -5.1980 C.ar   71  TYR71       0.0417
     10  CE2       47.6470   58.8820   -3.7390 C.ar   71  TYR71       0.0417
     11  CZ        47.0620   58.9450   -4.9690 C.ar   71  TYR71       0.1957
     12  OH        47.5040   58.1080   -5.9600 O.3    71  TYR71      -0.2866
     13  N         46.9890   58.4300    2.5360 N.3    74  LEU74      -0.1245
     14  CA        48.4310   58.5130    2.4120 C.3    74  LEU74       0.1561
     15  C         48.8550   59.8420    3.0200 C.2    74  LEU74       0.2260
     16  O         49.8880   60.4230    2.6540 O.2    74  LEU74      -0.2867
     17  CB        48.8190   58.4580    0.9430 C.3    74  LEU74       0.0270
     18  CG        48.8550   57.0410    0.3620 C.3    74  LEU74       0.0019
     19  CD1       49.1590   57.0900   -1.1250 C.3    74  LEU74       0.0001
     20  CD2       49.9180   56.2300    1.0710 C.3    74  LEU74       0.0001
     21  N         52.1520   59.8150    4.4640 N.3    77  SER77      -0.1217
     22  CA        53.1890   59.3870    3.5230 C.3    77  SER77       0.1889
     23  C         53.4450   60.4820    2.5080 C.2    77  SER77       0.2288
     24  O         53.6780   60.2140    1.3390 O.2    77  SER77      -0.2866
     25  CB        52.7220   58.1510    2.7630 C.3    77  SER77       0.2089
     26  OG        52.2940   57.1470    3.6600 O.3    77  SER77      -0.2183
     27  N         56.6080   60.5410    0.5450 N.3    80  TRP80      -0.1241
     28  CA        56.5970   59.4770   -0.4310 C.3    80  TRP80       0.1605
     29  C         55.9730   59.9920   -1.7180 C.2    80  TRP80       0.2264
     30  O         56.4550   59.6940   -2.8260 O.2    80  TRP80      -0.2867
     31  CB        55.7830   58.2950    0.0760 C.3    80  TRP80       0.0550
     32  CG        56.5330   57.3470    0.9300 C.ar   80  TRP80       0.0003
     33  CD1       56.3940   57.1710    2.2720 C.ar   80  TRP80       0.0946
     34  CD2       57.5160   56.4020    0.5030 C.ar   80  TRP80       0.0152
     35  NE1       57.2270   56.1690    2.7160 N.ar   80  TRP80      -0.2442
     36  CE2       57.9250   55.6750    1.6500 C.ar   80  TRP80       0.0810
     37  CE3       58.0890   56.0910   -0.7320 C.ar   80  TRP80       0.0012
     38  CZ2       58.8880   54.6540    1.5940 C.ar   80  TRP80       0.0191
     39  CZ3       59.0580   55.0580   -0.7800 C.ar   80  TRP80       0.0001
     40  CH2       59.4370   54.3590    0.3770 C.ar   80  TRP80       0.0015
     41  N         57.7900   59.5770   -5.2120 N.3    84  TRP84      -0.1241
     42  CA        57.2380   58.8530   -6.3400 C.3    84  TRP84       0.1605
     43  C         57.0510   59.7370   -7.5740 C.2    84  TRP84       0.2264
     44  O         57.4050   59.3420   -8.6850 O.2    84  TRP84      -0.2867
     45  CB        55.9060   58.2200   -5.9690 C.3    84  TRP84       0.0550
     46  CG        55.9500   57.2170   -4.8640 C.ar   84  TRP84       0.0003
     47  CD1       56.9200   56.2900   -4.6240 C.ar   84  TRP84       0.0946
     48  CD2       54.9460   57.0070   -3.8820 C.ar   84  TRP84       0.0152
     49  NE1       56.5810   55.5180   -3.5530 N.ar   84  TRP84      -0.2442
     50  CE2       55.3670   55.9510   -3.0950 C.ar   84  TRP84       0.0810
     51  CE3       53.7030   57.6110   -3.5940 C.ar   84  TRP84       0.0012
     52  CZ2       54.6260   55.5020   -2.0750 C.ar   84  TRP84       0.0191
     53  CZ3       52.9850   57.1540   -2.5760 C.ar   84  TRP84       0.0001
     54  CH2       53.4310   56.1160   -1.8250 C.ar   84  TRP84       0.0015
     55  N         60.5290   55.2320    6.8680 N.3   129  ALA129     -0.1245
     56  CA        60.0450   55.1540    5.5100 C.3   129  ALA129      0.1562
     57  C         60.0150   56.5750    4.9090 C.2   129  ALA129      0.2260
     58  O         60.4880   56.7610    3.8140 O.2   129  ALA129     -0.2867
     59  CB        58.6650   54.4970    5.4650 C.3   129  ALA129      0.0290
     60  N         62.7940   46.6860    6.1520 N.3   180  ARG180     -0.1245
     61  CA        62.6960   48.0110    5.5620 C.3   180  ARG180      0.1563
     62  C         63.5310   48.9940    6.3620 C.2   180  ARG180      0.2260
     63  O         64.1690   49.8950    5.7930 O.2   180  ARG180     -0.2867
     64  CB        61.2600   48.5230    5.5690 C.3   180  ARG180      0.0307
     65  CG        60.2170   47.7480    4.7440 C.3   180  ARG180      0.0489
     66  CD        58.7780   48.3290    5.0050 C.3   180  ARG180      0.2205
     67  NE        58.3610   48.1280    6.3970 N.pl3 180  ARG180     -0.0865
     68  CZ        57.6290   48.9860    7.1120 C.cat 180  ARG180      0.5346
     69  NH1       57.3130   48.6850    8.3720 N.pl3 180  ARG180      0.1354
     70  NH2       57.1840   50.1260    6.5690 N.pl3 180  ARG180      0.1354
     71  N         59.8830   37.4090    0.3830 N.3   226  HIS226     -0.1241
     72  CA        59.0200   38.4070   -0.2120 C.3   226  HIS226      0.1621
     73  C         59.8470   39.3770   -1.0220 C.2   226  HIS226      0.2264
     74  O         60.9410   39.7920   -0.6010 O.2   226  HIS226     -0.2867
     75  CB        58.3230   39.1350    0.9140 C.3   226  HIS226      0.0745
     76  CG        57.3120   40.1180    0.4510 C.ar  226  HIS226      0.0817
     77  ND1       57.6470   41.3760   -0.0060 N.ar  226  HIS226     -0.2268
     78  CD2       55.9620   40.0460    0.4020 C.ar  226  HIS226      0.1154
     79  CE1       56.5480   42.0370   -0.3090 C.ar  226  HIS226      0.1986
     80  NE2       55.5100   41.2510   -0.0700 N.ar  226  HIS226     -0.2212
     81  N         52.4000   41.6850  -10.2650 N.3   275  ASP275     -0.1239
     82  CA        52.0760   43.0400   -9.8130 C.3   275  ASP275      0.1674
     83  C         53.1680   43.9960  -10.3010 C.2   275  ASP275      0.2266
     84  O         54.3680   43.7970  -10.0150 O.2   275  ASP275     -0.2867
     85  CB        51.9560   43.1140   -8.3030 C.3   275  ASP275      0.1410
     86  CG        51.6870   44.5370   -7.8040 C.2   275  ASP275      0.3668
     87  OD1       51.6310   45.4820   -8.6290 O.co2 275  ASP275     -0.2456
     88  OD2       51.5260   44.6980   -6.5720 O.co2 275  ASP275     -0.2456
     89  N         54.4140   46.7940   -9.4040 N.3   277  CYS277     -0.1221
     90  CA        55.4190   47.4320   -8.5580 C.3   277  CYS277      0.1808
     91  C         56.6400   46.5030   -8.3940 C.2   277  CYS277      0.2601
     92  O         57.7720   46.9290   -8.1430 O.2   277  CYS277     -0.2717
     93  CB        54.8180   47.8090   -7.2090 C.3   277  CYS277      0.0970
     94  SG        54.1050   46.4350   -6.3050 S.3   277  CYS277     -0.0800
     95  N         56.4060   45.2140   -8.5510 N.am  278  TYR278     -0.1976
     96  CA        57.4750   44.2470   -8.3880 C.3   278  TYR278      0.1639
     97  C         58.3840   44.2120   -9.5680 C.2   278  TYR278      0.2290
     98  O         59.3380   43.4480   -9.6030 O.2   278  TYR278     -0.2864
     99  CB        56.9120   42.8660   -8.1050 C.3   278  TYR278      0.0560
    100  CG        56.3590   42.7680   -6.6960 C.ar  278  TYR278     -0.0198
    101  CD1       54.9800   42.6840   -6.4670 C.ar  278  TYR278     -0.0009
    102  CD2       57.2130   42.8620   -5.5920 C.ar  278  TYR278     -0.0009
    103  CE1       54.4590   42.7060   -5.1810 C.ar  278  TYR278      0.0417
    104  CE2       56.7060   42.8820   -4.3000 C.ar  278  TYR278      0.0417
    105  CZ        55.3190   42.8060   -4.0960 C.ar  278  TYR278      0.1957
    106  OH        54.7950   42.8140   -2.8160 O.3   278  TYR278     -0.2866
    107  N         60.9770   45.9370   -7.4460 N.3   281  TRP281     -0.1241
    108  CA        61.4470   45.2750   -6.2320 C.3   281  TRP281      0.1605
    109  C         62.1010   43.9240   -6.5520 C.2   281  TRP281      0.2264
    110  O         63.0860   43.5540   -5.9580 O.2   281  TRP281     -0.2867
    111  CB        60.3210   45.1130   -5.1980 C.3   281  TRP281      0.0550
    112  CG        59.6560   46.4140   -4.7300 C.ar  281  TRP281      0.0003
    113  CD1       58.3380   46.7170   -4.8480 C.ar  281  TRP281      0.0946
    114  CD2       60.2550   47.5240   -4.0270 C.ar  281  TRP281      0.0152
    115  NE1       58.0650   47.9250   -4.2570 N.ar  281  TRP281     -0.2442
    116  CE2       59.2210   48.4460   -3.7520 C.ar  281  TRP281      0.0810
    117  CE3       61.5470   47.8210   -3.6020 C.ar  281  TRP281      0.0012
    118  CZ2       59.4440   49.6480   -3.0760 C.ar  281  TRP281      0.0191
    119  CZ3       61.7670   49.0290   -2.9190 C.ar  281  TRP281      0.0001
    120  CH2       60.7180   49.9220   -2.6670 C.ar  281  TRP281      0.0015
    121  N         49.0320   48.2820  -10.9850 N.3   330  ASP330     -0.1239
    122  CA        49.3100   46.9070  -10.5690 C.3   330  ASP330      0.1674
    123  C         49.1830   45.9410  -11.7260 C.2   330  ASP330      0.2266
    124  O         50.1590   45.3240  -12.1550 O.2   330  ASP330     -0.2867
    125  CB        48.3360   46.5440   -9.4440 C.3   330  ASP330      0.1410
    126  CG        48.4250   45.0840   -8.9970 C.2   330  ASP330      0.3668
    127  OD1       48.8560   44.2000   -9.7840 O.co2 330  ASP330     -0.2456
    128  OD2       48.0430   44.8490   -7.8240 O.co2 330  ASP330     -0.2456
    129  N         47.9730   54.8310   -9.3200 N.3   337  ASP337     -0.1225
    130  CA        48.5130   55.5780   -8.1990 C.3   337  ASP337      0.1805
    131  C         49.9900   55.8460   -8.4500 C.2   337  ASP337      0.2598
    132  O         50.6340   55.2210   -9.2840 O.2   337  ASP337     -0.2718
    133  CB        48.2970   54.8310   -6.8930 C.3   337  ASP337      0.1424
    134  CG        48.9110   53.4410   -6.9030 C.2   337  ASP337      0.3668
    135  OD1       50.1500   53.3200   -6.7440 O.co2 337  ASP337     -0.2456
    136  OD2       48.1320   52.4720   -7.0590 O.co2 337  ASP337     -0.2456
    137  N         50.5200   56.7970   -7.7110 N.am  338  PHE338     -0.1962
    138  CA        51.8910   57.2100   -7.8630 C.3   338  PHE338      0.1771
    139  C         52.9050   56.1730   -7.4510 C.2   338  PHE338      0.2620
    140  O         54.0740   56.2460   -7.8810 O.2   338  PHE338     -0.2715
    141  CB        52.0890   58.5170   -7.1040 C.3   338  PHE338      0.0574
    142  CG        51.0790   59.5570   -7.4500 C.ar  338  PHE338     -0.0200
    143  CD1       50.1720   60.0110   -6.5130 C.ar  338  PHE338     -0.0042
    144  CD2       50.9830   60.0200   -8.7460 C.ar  338  PHE338     -0.0042
    145  CE1       49.1840   60.9090   -6.8710 C.ar  338  PHE338     -0.0003
    146  CE2       50.0000   60.9200   -9.1200 C.ar  338  PHE338     -0.0003
    147  CZ        49.0900   61.3640   -8.1810 C.ar  338  PHE338     -0.0000
    148  N         52.4890   55.2180   -6.6210 N.am  339  TYR339     -0.1960
    149  CA        53.4400   54.1950   -6.1840 C.3   339  TYR339      0.1771
    150  C         53.7340   53.2300   -7.3090 C.2   339  TYR339      0.2619
    151  O         54.8840   52.9160   -7.6150 O.2   339  TYR339     -0.2715
    152  CB        52.8810   53.4600   -4.9740 C.3   339  TYR339      0.0574
    153  CG        53.4800   52.1210   -4.6650 C.ar  339  TYR339     -0.0198
    154  CD1       54.7040   52.0220   -4.0240 C.ar  339  TYR339     -0.0009
    155  CD2       52.8520   50.9570   -5.0880 C.ar  339  TYR339     -0.0009
    156  CE1       55.2880   50.7900   -3.8200 C.ar  339  TYR339      0.0417
    157  CE2       53.4410   49.7170   -4.8950 C.ar  339  TYR339      0.0417
    158  CZ        54.6530   49.6470   -4.2670 C.ar  339  TYR339      0.1957
    159  OH        55.2290   48.4160   -4.1030 O.3   339  TYR339     -0.2866
    160  N         52.6840   52.7700   -7.9660 N.am  340  HIS340     -0.1973
    161  CA        52.8690   51.8770   -9.0950 C.3   340  HIS340      0.1656
    162  C         53.4540   52.6620  -10.2840 C.2   340  HIS340      0.2291
    163  O         54.1710   52.1100  -11.1310 O.2   340  HIS340     -0.2864
    164  CB        51.5420   51.2410   -9.4720 C.3   340  HIS340      0.0771
    165  CG        51.1090   50.1690   -8.5340 C.ar  340  HIS340      0.0820
    166  ND1       50.1830   50.3900   -7.5380 N.ar  340  HIS340     -0.2267
    167  CD2       51.5150   48.8800   -8.4010 C.ar  340  HIS340      0.1154
    168  CE1       50.0410   49.2850   -6.8250 C.ar  340  HIS340      0.1986
    169  NE2       50.8400   48.3550   -7.3280 N.ar  340  HIS340     -0.2212
@<TRIPOS>BOND
     1   124   123    2
     2   123   122    1
     3   163   162    2
     4   121   122    1
     5   122   125    1
     6    83    84    2
     7    83    82    1
     8   162   161    1
     9    81    82    1
    10    82    85    1
    11   127   126   ar
    12    98    97    2
    13    97    96    1
    14   164   161    1
    15   164   165    1
    16   125   126    1
    17    89    90    1
    18   129   130    1
    19   132   131    2
    20   146   144   ar
    21   146   147   ar
    22   161   160    1
    23   126   128   ar
    24   144   142   ar
    25    44    43    2
    26    87    86   ar
    27    90    91    1
    28    90    93    1
    29    95    91   am
    30    95    96    1
    31   165   167   ar
    32   165   166   ar
    33   131   130    1
    34   131   137   am
    35   167   169   ar
    36    91    92    2
    37    96    99    1
    38    85    86    1
    39   130   133    1
    40   147   145   ar
    41    99   100    1
    42   160   150   am
    43   140   139    2
    44   138   137    1
    45   138   139    1
    46   138   141    1
    47    86    88   ar
    48   151   150    2
    49    43    42    1
    50   166   168   ar
    51   139   148   am
    52   142   141    1
    53   142   143   ar
    54   107   108    1
    55   169   168   ar
    56   150   149    1
    57    93    94    1
    58   136   134   ar
    59   134   133    1
    60   134   135   ar
    61   145   143   ar
    62   100   101   ar
    63   100   102   ar
    64   148   149    1
    65   109   108    1
    66   109   110    2
    67   101   103   ar
    68    42    45    1
    69    42    41    1
    70   108   111    1
    71   149   152    1
    72    45    46    1
    73    12    11    1
    74   102   104   ar
    75     9    11   ar
    76     9     7   ar
    77   111   112    1
    78   103   105   ar
    79   155   157   ar
    80   155   153   ar
    81   152   153    1
    82    11    10   ar
    83   157   158   ar
    84    46    47   ar
    85    46    48   ar
    86   113   112   ar
    87   113   115   ar
    88   112   114   ar
    89   153   154   ar
    90    47    49   ar
    91   104   105   ar
    92   158   159    1
    93   158   156   ar
    94   115   116   ar
    95     7     6   ar
    96   105   106    1
    97   114   116   ar
    98   114   117   ar
    99   154   156   ar
   100    48    51   ar
   101    48    50   ar
   102   116   118   ar
   103    10     8   ar
   104   117   119   ar
   105    51    53   ar
   106    49    50   ar
   107    50    52   ar
   108   118   120   ar
   109   119   120   ar
   110     6     8   ar
   111     6     5    1
   112    30    29    2
   113    53    54   ar
   114    52    54   ar
   115     5     2    1
   116    29    28    1
   117     1     2    1
   118    19    18    1
   119    73    74    2
   120    73    72    1
   121     2     3    1
   122    39    37   ar
   123    39    40   ar
   124    37    34   ar
   125    28    31    1
   126    28    27    1
   127    79    80   ar
   128    79    77   ar
   129    72    71    1
   130    72    75    1
   131    80    78   ar
   132    77    76   ar
   133    31    32    1
   134    18    17    1
   135    18    20    1
   136    40    38   ar
   137    78    76   ar
   138    76    75    1
   139    34    32   ar
   140    34    36   ar
   141     3     4    2
   142    32    33   ar
   143    17    14    1
   144    24    23    2
   145    38    36   ar
   146    36    35   ar
   147    33    35   ar
   148    14    13    1
   149    14    15    1
   150    23    22    1
   151    16    15    2
   152    25    22    1
   153    25    26    1
   154    22    21    1
   155    58    57    2
   156    65    66    1
   157    65    64    1
   158    57    56    1
   159    66    67    1
   160    59    56    1
   161    56    55    1
   162    61    64    1
   163    61    60    1
   164    61    62    1
   165    63    62    2
   166    67    68    2
   167    70    68    1
   168    68    69    1
