@<TRIPOS>MOLECULE
tmp/1n9bA02.pdb
 84 77 0 0 0
SMALL
GASTEIGER

@<TRIPOS>ATOM
      1  N         16.2780  -32.7680   50.0200 N.3    45  SER45      -0.1217
      2  CA        16.7550  -31.5850   49.2890 C.3    45  SER45       0.1889
      3  C         16.1990  -30.2700   49.8630 C.2    45  SER45       0.2288
      4  O         16.6830  -29.2010   49.4240 O.2    45  SER45      -0.2866
      5  CB        16.4770  -31.6700   47.8180 C.3    45  SER45       0.2089
      6  OG        17.3740  -32.5450   47.1690 O.3    45  SER45      -0.2183
      7  N         22.9070  -37.1290   40.0580 N.3    80  TYR80      -0.1241
      8  CA        21.9230  -36.1240   39.6810 C.3    80  TYR80       0.1605
      9  C         22.5680  -34.7190   39.7370 C.2    80  TYR80       0.2264
     10  O         22.5370  -34.0020   40.7250 O.2    80  TYR80      -0.2867
     11  CB        20.6260  -36.2170   40.4660 C.3    80  TYR80       0.0534
     12  CG        19.6360  -35.1860   39.9960 C.ar   80  TYR80      -0.0201
     13  CD1       18.9970  -35.3110   38.7590 C.ar   80  TYR80      -0.0009
     14  CD2       19.3640  -34.0330   40.7450 C.ar   80  TYR80      -0.0009
     15  CE1       18.0970  -34.3560   38.2980 C.ar   80  TYR80       0.0417
     16  CE2       18.4660  -33.0900   40.2630 C.ar   80  TYR80       0.0417
     17  CZ        17.8390  -33.2210   39.0590 C.ar   80  TYR80       0.1957
     18  OH        16.9510  -32.2630   38.6350 O.3    80  TYR80      -0.2866
     19  N         17.5560  -28.7540   41.9990 N.3   105  SER105     -0.1217
     20  CA        17.9060  -29.7770   42.9720 C.3   105  SER105      0.1889
     21  C         19.2160  -30.4600   42.6190 C.2   105  SER105      0.2288
     22  O         19.4390  -31.6260   42.9920 O.2   105  SER105     -0.2866
     23  CB        16.7500  -30.7610   43.2360 C.3   105  SER105      0.2089
     24  OG        16.7740  -31.0810   44.6130 O.3   105  SER105     -0.2183
     25  N         11.6610  -27.7180   39.4920 N.3   191  VAL191     -0.1245
     26  CA        11.3180  -29.1120   39.7270 C.3   191  VAL191      0.1561
     27  C          9.8270  -29.2640   40.0080 C.2   191  VAL191      0.2260
     28  O          9.1500  -30.0780   39.3550 O.2   191  VAL191     -0.2867
     29  CB        12.1700  -29.7110   40.8430 C.3   191  VAL191      0.0252
     30  CG1       11.7280  -31.1390   41.2220 C.3   191  VAL191      0.0019
     31  CG2       13.6400  -29.7040   40.4240 C.3   191  VAL191      0.0019
     32  N         10.7500  -25.3110   47.7400 N.3   209  LYS209     -0.1231
     33  CA        11.7850  -26.3280   47.5060 C.3   209  LYS209      0.1693
     34  C         11.2360  -27.6590   48.0060 C.2   209  LYS209      0.2593
     35  O         10.7520  -27.7470   49.1460 O.2   209  LYS209     -0.2718
     36  CB        13.0680  -26.0180   48.2150 C.3   209  LYS209      0.0285
     37  CG        14.1580  -27.0400   47.9490 C.3   209  LYS209      0.0035
     38  CD        14.7550  -26.9450   46.5750 C.3   209  LYS209      0.0206
     39  CE        15.6090  -28.1540   46.1860 C.3   209  LYS209      0.1093
     40  NZ        14.7820  -29.2620   45.6610 N.3   209  LYS209     -0.1314
     41  N         11.3410  -28.6950   47.1890 N.am  210  THR210     -0.1939
     42  CA        10.9240  -30.0500   47.5520 C.3   210  THR210      0.2028
     43  C         12.1160  -30.9320   47.8850 C.2   210  THR210      0.2643
     44  O         13.2690  -30.6470   47.5840 O.2   210  THR210     -0.2714
     45  CB        10.0400  -30.6910   46.4750 C.3   210  THR210      0.1808
     46  OG1       10.7390  -30.7900   45.2380 O.3   210  THR210     -0.2208
     47  CG2        8.7670  -29.9110   46.2560 C.3   210  THR210      0.0379
     48  N         11.7890  -32.0900   48.5110 N.am  211  GLY211     -0.1939
     49  CA        12.7420  -33.1410   48.7410 C.3   211  GLY211      0.2014
     50  C         12.0290  -34.5050   48.6370 C.2   211  GLY211      0.2638
     51  O         10.8110  -34.6120   48.8150 O.2   211  GLY211     -0.2714
     52  N         12.8390  -35.5250   48.3800 N.am  212  ALA212     -0.1977
     53  CA        12.3270  -36.8850   48.2290 C.3   212  ALA212      0.1597
     54  C         13.3580  -37.8890   48.6440 C.2   212  ALA212      0.2287
     55  O         14.5490  -37.6510   48.5370 O.2   212  ALA212     -0.2864
     56  CB        11.9470  -37.1510   46.7880 C.3   212  ALA212      0.0319
     57  N         13.6770  -42.3810   48.1590 N.3   214  GLU214     -0.1245
     58  CA        12.9720  -43.5820   47.6540 C.3   214  GLU214      0.1567
     59  C         12.4260  -44.3550   48.8570 C.2   214  GLU214      0.2260
     60  O         11.4480  -45.1000   48.7050 O.2   214  GLU214     -0.2867
     61  CB        13.8980  -44.4110   46.7960 C.3   214  GLU214      0.0388
     62  CG        13.8960  -44.0610   45.3080 C.3   214  GLU214      0.1160
     63  CD        12.8540  -43.2930   44.5290 C.2   214  GLU214      0.3649
     64  OE1       13.2860  -42.4970   43.6160 O.co2 214  GLU214     -0.2457
     65  OE2       11.5930  -43.3650   44.6030 O.co2 214  GLU214     -0.2457
     66  N          9.1340  -37.6600   51.8560 N.3   218  ARG218     -0.1245
     67  CA         8.8420  -36.6190   50.8730 C.3   218  ARG218      0.1563
     68  C          8.7300  -35.3330   51.6850 C.2   218  ARG218      0.2260
     69  O          8.3210  -35.3800   52.8530 O.2   218  ARG218     -0.2867
     70  CB         7.5230  -36.8970   50.1440 C.3   218  ARG218      0.0307
     71  CG         7.1670  -36.0350   48.9360 C.3   218  ARG218      0.0489
     72  CD         8.0720  -36.3840   47.8040 C.3   218  ARG218      0.2205
     73  NE         7.7060  -35.7990   46.5610 N.pl3 218  ARG218     -0.0865
     74  CZ         8.4060  -34.9310   45.8040 C.cat 218  ARG218      0.5346
     75  NH1        9.5190  -34.4090   46.2000 N.pl3 218  ARG218      0.1354
     76  NH2        7.8640  -34.6520   44.6280 N.pl3 218  ARG218      0.1354
     77  N          5.4550  -42.8770   45.1600 N.3   245  MET245     -0.1245
     78  CA         5.7490  -41.4570   45.0630 C.3   245  MET245      0.1570
     79  C          4.5360  -40.6580   44.6500 C.2   245  MET245      0.2261
     80  O          4.2340  -39.5710   45.1820 O.2   245  MET245     -0.2867
     81  CB         6.9870  -41.2400   44.1420 C.3   245  MET245      0.0387
     82  CG         7.5760  -39.8310   44.2570 C.3   245  MET245      0.0595
     83  SD         8.4210  -39.4730   45.7900 S.3   245  MET245     -0.1393
     84  CE         9.8840  -40.4680   45.6310 C.3   245  MET245      0.0692
@<TRIPOS>BOND
     1    15    13   ar
     2    15    17   ar
     3    18    17    1
     4    13    12   ar
     5    17    16   ar
     6    28    27    2
     7    25    26    1
     8     8     9    1
     9     8     7    1
    10     8    11    1
    11    26    27    1
    12    26    29    1
    13     9    10    2
    14    12    11    1
    15    12    14   ar
    16    16    14   ar
    17    31    29    1
    18    29    30    1
    19    19    20    1
    20    21    20    1
    21    21    22    2
    22    20    23    1
    23    23    24    1
    24    64    63   ar
    25    81    82    1
    26    81    78    1
    27    82    83    1
    28    63    65   ar
    29    63    62    1
    30    76    74    1
    31    79    78    1
    32    79    80    2
    33    78    77    1
    34    46    45    1
    35    62    61    1
    36    84    83    1
    37    40    39    1
    38    74    75    1
    39    74    73    2
    40    39    38    1
    41    47    45    1
    42    45    42    1
    43    73    72    1
    44    38    37    1
    45    56    53    1
    46    61    58    1
    47     6     5    1
    48    41    42    1
    49    41    34   am
    50    33    32    1
    51    33    34    1
    52    33    36    1
    53    42    43    1
    54    44    43    2
    55    58    57    1
    56    58    59    1
    57    72    71    1
    58     5     2    1
    59    43    48   am
    60    37    36    1
    61    34    35    2
    62    53    52    1
    63    53    54    1
    64    52    50   am
    65    48    49    1
    66    55    54    2
    67    50    49    1
    68    50    51    2
    69    60    59    2
    70    71    70    1
    71     2     3    1
    72     2     1    1
    73     4     3    2
    74    70    67    1
    75    67    68    1
    76    67    66    1
    77    68    69    2
