@<TRIPOS>MOLECULE
tmp/1n9eD00.pdb
 109 105 0 0 0
SMALL
GASTEIGER

@<TRIPOS>ATOM
      1  N        103.5780   54.7390   36.0720 N.3    61  LEU61      -0.1231
      2  CA       103.2500   53.6350   36.9500 C.3    61  LEU61       0.1693
      3  C        102.2510   54.2920   37.8970 C.2    61  LEU61       0.2592
      4  O        102.6090   55.1160   38.7370 O.2    61  LEU61      -0.2718
      5  CB       104.4850   53.1300   37.6930 C.3    61  LEU61       0.0284
      6  CG       104.2240   51.9820   38.6730 C.3    61  LEU61       0.0019
      7  CD1      103.7450   50.7110   37.9580 C.3    61  LEU61       0.0001
      8  CD2      105.5070   51.7150   39.4860 C.3    61  LEU61       0.0001
      9  N        100.9800   53.9350   37.7650 N.am   62  LYS62      -0.1966
     10  CA        99.9550   54.6190   38.5320 C.3    62  LYS62       0.1713
     11  C        100.0050   54.3570   40.0230 C.2    62  LYS62       0.2458
     12  O        100.4660   53.3060   40.4700 O.2    62  LYS62      -0.2730
     13  CB        98.5660   54.2690   37.9880 C.3    62  LYS62       0.0311
     14  CG        98.3190   54.7770   36.5810 C.3    62  LYS62       0.0038
     15  CD        96.9290   54.3670   36.1240 C.3    62  LYS62       0.0206
     16  CE        96.6820   54.7410   34.6740 C.3    62  LYS62       0.1093
     17  NZ        97.3770   53.8130   33.7320 N.3    62  LYS62      -0.1314
     18  N         99.5280   55.3230   40.7920 N.am   63  PRO63      -0.2716
     19  CA        99.5230   55.2010   42.2490 C.3    63  PRO63       0.1536
     20  C         98.7170   54.0150   42.7150 C.2    63  PRO63       0.2598
     21  O         97.7790   53.5410   42.0400 O.2    63  PRO63      -0.2715
     22  CB        98.8670   56.5040   42.7180 C.3    63  PRO63       0.0310
     23  CG        99.0260   57.4470   41.5610 C.3    63  PRO63       0.0237
     24  CD        98.9640   56.6000   40.3280 C.3    63  PRO63       0.0939
     25  N         99.0940   53.5310   43.8820 N.am   64  ASN64      -0.1973
     26  CA        98.3350   52.4750   44.5330 C.3    64  ASN64       0.1688
     27  C         97.0670   53.1060   45.0730 C.2    64  ASN64       0.2292
     28  O         96.9980   54.3150   45.2500 O.2    64  ASN64      -0.2864
     29  CB        99.1650   51.8370   45.6420 C.3    64  ASN64       0.1181
     30  CG       100.1590   50.8250   45.1000 C.2    64  ASN64       0.2629
     31  OD1      100.0210   50.3400   43.9610 O.2    64  ASN64      -0.2716
     32  ND2      101.1660   50.5020   45.9090 N.am   64  ASN64      -0.0877
     33  N         96.9480   55.0830   48.8130 N.3    67  GLU67      -0.1245
     34  CA        97.5850   56.3840   48.7760 C.3    67  GLU67       0.1567
     35  C         96.7810   57.3570   47.9200 C.2    67  GLU67       0.2260
     36  O         96.6670   58.5420   48.2330 O.2    67  GLU67      -0.2867
     37  CB        99.0360   56.2700   48.2740 C.3    67  GLU67       0.0388
     38  CG        99.2190   55.7760   46.8400 C.3    67  GLU67       0.1160
     39  CD       100.6920   55.5930   46.4840 C.2    67  GLU67       0.3649
     40  OE1      101.0140   55.1100   45.3690 O.co2  67  GLU67      -0.2457
     41  OE2      101.5410   55.9390   47.3360 O.co2  67  GLU67      -0.2457
     42  N        103.7810   59.2750   45.0670 N.3    80  PRO80      -0.2116
     43  CA       105.0330   59.3420   44.3030 C.3    80  PRO80       0.1372
     44  C        104.7490   59.2570   42.8090 C.2    80  PRO80       0.2244
     45  O        103.8720   58.5010   42.4140 O.2    80  PRO80      -0.2868
     46  CB       105.7730   58.0860   44.7540 C.3    80  PRO80       0.0268
     47  CG       105.2130   57.7670   46.0840 C.3    80  PRO80       0.0207
     48  CD       103.7750   58.1720   46.0450 C.3    80  PRO80       0.0892
     49  N        106.0390   57.9740   39.4490 N.3    82  ASN82      -0.1240
     50  CA       106.9610   56.9420   38.9770 C.3    82  ASN82       0.1653
     51  C        106.6770   56.5050   37.5740 C.2    82  ASN82       0.2266
     52  O        105.5470   56.6060   37.1010 O.2    82  ASN82      -0.2867
     53  CB       106.8830   55.6780   39.8320 C.3    82  ASN82       0.1155
     54  CG       107.3380   55.8990   41.2430 C.2    82  ASN82       0.2627
     55  OD1      108.4270   56.4220   41.4810 O.2    82  ASN82      -0.2716
     56  ND2      106.5040   55.4980   42.1980 N.am   82  ASN82      -0.0877
     57  N        111.1900   49.9260   37.3060 N.3   101  LYS101     -0.1245
     58  CA       110.5780   51.1080   37.8890 C.3   101  LYS101      0.1561
     59  C        111.6180   52.2290   37.9470 C.2   101  LYS101      0.2260
     60  O        112.7290   52.0100   38.4100 O.2   101  LYS101     -0.2867
     61  CB       110.0730   50.7880   39.2910 C.3   101  LYS101      0.0271
     62  CG       109.5160   51.9910   40.0430 C.3   101  LYS101      0.0035
     63  CD       109.1490   51.5850   41.4530 C.3   101  LYS101      0.0206
     64  CE       108.4640   52.7200   42.1940 C.3   101  LYS101      0.1093
     65  NZ       108.1560   52.3520   43.6170 N.3   101  LYS101     -0.1314
     66  N        114.7770   50.0950   39.5440 N.3   114  GLU114     -0.1231
     67  CA       114.6580   48.7720   40.1440 C.3   114  GLU114      0.1684
     68  C        113.8230   47.8350   39.2960 C.2   114  GLU114      0.2434
     69  O        112.9520   48.2920   38.5600 O.2   114  GLU114     -0.2733
     70  CB       113.9540   48.8670   41.5080 C.3   114  GLU114      0.0402
     71  CG       114.4890   49.9230   42.4600 C.3   114  GLU114      0.1161
     72  CD       113.5880   50.1110   43.6710 C.2   114  GLU114      0.3649
     73  OE1      112.4480   49.5860   43.6660 O.co2 114  GLU114     -0.2457
     74  OE2      114.0170   50.7860   44.6330 O.co2 114  GLU114     -0.2457
     75  N        114.0890   46.5350   39.4070 N.am  115  PRO115     -0.2729
     76  CA       113.2840   45.5160   38.7190 C.3   115  PRO115      0.1401
     77  C        111.8430   45.7120   39.1710 C.2   115  PRO115      0.2269
     78  O        111.5980   45.9890   40.3490 O.2   115  PRO115     -0.2865
     79  CB       113.8540   44.1980   39.2460 C.3   115  PRO115      0.0296
     80  CG       115.2820   44.5540   39.6400 C.3   115  PRO115      0.0237
     81  CD       115.1830   45.9420   40.2050 C.3   115  PRO115      0.0939
     82  N        105.6940   43.6960   40.8030 N.3   118  PHE118     -0.1241
     83  CA       104.6500   43.4670   41.8150 C.3   118  PHE118      0.1605
     84  C        103.2800   43.1160   41.2360 C.2   118  PHE118      0.2264
     85  O        102.5280   42.3800   41.8750 O.2   118  PHE118     -0.2867
     86  CB       104.5140   44.6190   42.8590 C.3   118  PHE118      0.0534
     87  CG       103.8870   45.8850   42.3160 C.ar  118  PHE118     -0.0203
     88  CD1      102.4990   45.9920   42.1570 C.ar  118  PHE118     -0.0042
     89  CD2      104.6810   46.9680   41.9660 C.ar  118  PHE118     -0.0042
     90  CE1      101.9190   47.1600   41.6560 C.ar  118  PHE118     -0.0003
     91  CE2      104.1180   48.1400   41.4650 C.ar  118  PHE118     -0.0003
     92  CZ       102.7260   48.2380   41.3070 C.ar  118  PHE118     -0.0000
     93  N         96.5130   45.9650   45.0090 N.3   608  ASP608     -0.1225
     94  CA        97.3600   46.7570   44.1220 C.3   608  ASP608      0.1805
     95  C         98.2170   45.8510   43.2340 C.2   608  ASP608      0.2597
     96  O         98.5930   46.2270   42.1180 O.2   608  ASP608     -0.2718
     97  CB        98.2840   47.6490   44.9610 C.3   608  ASP608      0.1424
     98  CG        97.5350   48.7500   45.6700 C.2   608  ASP608      0.3668
     99  OD1       96.6330   49.3570   45.0470 O.co2 608  ASP608     -0.2456
    100  OD2       97.7750   49.0830   46.8500 O.co2 608  ASP608     -0.2456
    101  N         98.5210   44.6580   43.7410 N.am  609  GLU609     -0.1979
    102  CA        99.3080   43.6740   43.0000 C.3   609  GLU609      0.1602
    103  C         98.4680   42.9760   41.9170 C.2   609  GLU609      0.2287
    104  O         99.0050   42.3250   41.0240 O.2   609  GLU609     -0.2864
    105  CB        99.8980   42.6300   43.9580 C.3   609  GLU609      0.0415
    106  CG        98.8660   41.9780   44.8680 C.3   609  GLU609      0.1163
    107  CD        98.8360   42.5810   46.2720 C.2   609  GLU609      0.3649
    108  OE1       98.9410   41.7960   47.2500 O.co2 609  GLU609     -0.2457
    109  OE2       98.7080   43.8260   46.4130 O.co2 609  GLU609     -0.2457
@<TRIPOS>BOND
     1    17    16    1
     2    16    15    1
     3     1     2    1
     4    15    14    1
     5    14    13    1
     6     2     5    1
     7     2     3    1
     8    52    51    2
     9    57    58    1
    10    51    50    1
    11     5     6    1
    12     9     3   am
    13     9    10    1
    14    58    59    1
    15    58    61    1
    16     3     4    2
    17    59    60    2
    18     7     6    1
    19    13    10    1
    20    10    11    1
    21    69    68    2
    22     6     8    1
    23    76    77    1
    24    76    79    1
    25    76    75    1
    26    50    49    1
    27    50    53    1
    28    77    78    2
    29    79    80    1
    30    61    62    1
    31    68    75   am
    32    68    67    1
    33    75    81    1
    34    66    67    1
    35    80    81    1
    36    53    54    1
    37    11    12    2
    38    11    18   am
    39    62    63    1
    40    67    70    1
    41    24    18    1
    42    24    23    1
    43    18    19    1
    44    82    83    1
    45   104   103    2
    46    84    83    1
    47    84    85    2
    48    54    55    2
    49    54    56   am
    50    92    91   ar
    51    92    90   ar
    52    63    64    1
    53    91    89   ar
    54    70    71    1
    55    23    22    1
    56    90    88   ar
    57    83    86    1
    58   103   102    1
    59    89    87   ar
    60    21    20    2
    61    96    95    2
    62    88    87   ar
    63    64    65    1
    64    19    20    1
    65    19    22    1
    66    87    86    1
    67    45    44    2
    68    71    72    1
    69    20    25   am
    70    44    43    1
    71   102   101    1
    72   102   105    1
    73    95   101   am
    74    95    94    1
    75    73    72   ar
    76    72    74   ar
    77    25    26    1
    78   105   106    1
    79    31    30    2
    80    94    97    1
    81    94    93    1
    82    43    46    1
    83    43    42    1
    84    26    27    1
    85    26    29    1
    86    46    47    1
    87   106   107    1
    88    97    98    1
    89    99    98   ar
    90    42    48    1
    91    27    28    2
    92    30    29    1
    93    30    32   am
    94    40    39   ar
    95    98   100   ar
    96    48    47    1
    97   107   109   ar
    98   107   108   ar
    99    39    38    1
   100    39    41   ar
   101    38    37    1
   102    35    36    2
   103    35    34    1
   104    37    34    1
   105    34    33    1
