@<TRIPOS>MOLECULE
tmp/1n9lA00.pdb
 173 159 0 0 0
SMALL
GASTEIGER

@<TRIPOS>ATOM
      1  N         21.8050   49.9600   12.7930 N.3     7  VAL7       -0.1245
      2  CA        22.1840   50.6070   14.0420 C.3     7  VAL7        0.1561
      3  C         22.4600   49.5650   15.1260 C.2     7  VAL7        0.2260
      4  O         21.9940   48.4250   15.0500 O.2     7  VAL7       -0.2867
      5  CB        21.0830   51.5730   14.5970 C.3     7  VAL7        0.0252
      6  CG1       20.7240   52.6110   13.5550 C.3     7  VAL7        0.0019
      7  CG2       19.8580   50.7850   15.0500 C.3     7  VAL7        0.0019
      8  N         22.4600   49.0460   19.4160 N.3     9  ALA9       -0.1245
      9  CA        22.0710   49.5600   20.7240 C.3     9  ALA9        0.1562
     10  C         22.7540   48.7460   21.8270 C.2     9  ALA9        0.2260
     11  O         22.8980   47.5300   21.7140 O.2     9  ALA9       -0.2867
     12  CB        20.5500   49.5020   20.8920 C.3     9  ALA9        0.0290
     13  N         18.7400   50.9840   26.3690 N.3    16  CYS16      -0.1235
     14  CA        19.2680   50.5780   25.0560 C.3    16  CYS16       0.1677
     15  C         19.6740   51.7520   24.1710 C.2    16  CYS16       0.2270
     16  O         19.1560   51.9240   23.0650 O.2    16  CYS16      -0.2867
     17  CB        18.2450   49.7260   24.2950 C.3    16  CYS16       0.0956
     18  SG        18.0650   48.0290   24.9060 S.3    16  CYS16      -0.0801
     19  N         18.0590   56.4920   22.9240 N.3    40  ASN40      -0.1225
     20  CA        17.2050   55.3930   22.4970 C.3    40  ASN40       0.1785
     21  C         16.5950   55.8370   21.1590 C.2    40  ASN40       0.2597
     22  O         16.3290   57.0220   20.9660 O.2    40  ASN40      -0.2718
     23  CB        16.1160   55.1440   23.5470 C.3    40  ASN40       0.1169
     24  CG        15.2010   53.9940   23.1800 C.2    40  ASN40       0.2627
     25  OD1       14.3370   54.1240   22.3100 O.2    40  ASN40      -0.2716
     26  ND2       15.3950   52.8510   23.8370 N.am   40  ASN40      -0.0877
     27  N         16.3950   54.8930   20.2410 N.am   41  CYS41      -0.1956
     28  CA        15.8620   55.1860   18.9080 C.3    41  CYS41       0.1843
     29  C         14.3960   55.6360   18.8410 C.2    41  CYS41       0.2625
     30  O         13.8730   55.8670   17.7460 O.2    41  CYS41      -0.2714
     31  CB        16.0210   53.9630   17.9840 C.3    41  CYS41       0.0997
     32  SG        17.7110   53.4430   17.5540 S.3    41  CYS41      -0.0797
     33  N         13.7380   55.7580   19.9930 N.am   42  ARG42      -0.1977
     34  CA        12.3320   56.1620   20.0140 C.3    42  ARG42       0.1597
     35  C         12.1070   57.5820   19.5060 C.2    42  ARG42       0.2287
     36  O         10.9670   57.9860   19.2750 O.2    42  ARG42      -0.2864
     37  CB        11.7300   56.0200   21.4210 C.3    42  ARG42       0.0334
     38  CG        12.2490   57.0030   22.4720 C.3    42  ARG42       0.0492
     39  CD        11.3950   56.9230   23.7490 C.3    42  ARG42       0.2205
     40  NE        11.5650   55.6510   24.4540 N.pl3  42  ARG42      -0.0865
     41  CZ        12.5940   55.3660   25.2450 C.cat  42  ARG42       0.5346
     42  NH1       13.5480   56.2700   25.4400 N.pl3  42  ARG42       0.1354
     43  NH2       12.6720   54.1730   25.8280 N.pl3  42  ARG42       0.1354
     44  N         12.5560   58.5630   16.7300 N.3    44  LEU44      -0.1231
     45  CA        12.0910   58.4810   15.3470 C.3    44  LEU44       0.1693
     46  C         10.5740   58.3750   15.2580 C.2    44  LEU44       0.2591
     47  O          9.9910   58.5440   14.1850 O.2    44  LEU44      -0.2718
     48  CB        12.7120   57.2780   14.6440 C.3    44  LEU44       0.0284
     49  CG        14.1890   57.4450   14.2760 C.3    44  LEU44       0.0019
     50  CD1       14.6750   56.1750   13.6190 C.3    44  LEU44       0.0001
     51  CD2       14.3530   58.6330   13.3400 C.3    44  LEU44       0.0001
     52  N          9.9450   58.1020   16.3980 N.am   45  GLN45      -0.1979
     53  CA         8.4950   57.9480   16.4590 C.3    45  GLN45       0.1601
     54  C          7.7300   59.2590   16.5350 C.2    45  GLN45       0.2287
     55  O          8.2990   60.3120   16.8090 O.2    45  GLN45      -0.2864
     56  CB         8.1300   57.0550   17.6370 C.3    45  GLN45       0.0394
     57  CG         8.4620   55.5960   17.4030 C.3    45  GLN45       0.0908
     58  CD         8.7010   54.8350   18.6940 C.2    45  GLN45       0.2608
     59  OE1        8.0780   55.1160   19.7200 O.2    45  GLN45      -0.2717
     60  NE2        9.6010   53.8610   18.6470 N.am   45  GLN45      -0.0878
     61  N          4.7600   49.4990   18.7610 N.3    54  VAL54      -0.1245
     62  CA         5.8450   49.9390   19.6330 C.3    54  VAL54       0.1561
     63  C          5.9010   48.9920   20.8380 C.2    54  VAL54       0.2260
     64  O          6.9760   48.5430   21.2440 O.2    54  VAL54      -0.2867
     65  CB         5.6130   51.4070   20.1390 C.3    54  VAL54       0.0252
     66  CG1        6.6260   51.7730   21.2160 C.3    54  VAL54       0.0019
     67  CG2        5.7190   52.3870   18.9690 C.3    54  VAL54       0.0019
     68  N          7.7230   45.7550   20.1410 N.3    57  ILE57      -0.1231
     69  CA         9.1810   45.8670   20.1820 C.3    57  ILE57       0.1692
     70  C          9.6560   45.9300   21.6270 C.2    57  ILE57       0.2591
     71  O         10.6700   45.3280   21.9840 O.2    57  ILE57      -0.2718
     72  CB         9.6860   47.1460   19.5000 C.3    57  ILE57       0.0266
     73  CG1        9.1800   47.2190   18.0670 C.3    57  ILE57       0.0019
     74  CG2       11.2080   47.1710   19.5290 C.3    57  ILE57       0.0020
     75  CD1        9.4160   48.5780   17.4440 C.3    57  ILE57       0.0001
     76  N          8.9320   46.6860   22.4490 N.am   58  ARG58      -0.1980
     77  CA         9.3030   46.8120   23.8500 C.3    58  ARG58       0.1597
     78  C          9.3040   45.4480   24.5350 C.2    58  ARG58       0.2287
     79  O         10.2420   45.1270   25.2730 O.2    58  ARG58      -0.2864
     80  CB         8.3600   47.7680   24.5770 C.3    58  ARG58       0.0334
     81  CG         8.4980   47.7480   26.0950 C.3    58  ARG58       0.0492
     82  CD         7.8060   48.9390   26.6980 C.3    58  ARG58       0.2205
     83  NE         6.7210   49.3930   25.8320 N.pl3  58  ARG58      -0.0865
     84  CZ         6.1310   50.5760   25.9090 C.cat  58  ARG58       0.5346
     85  NH1        6.5150   51.4440   26.8340 N.pl3  58  ARG58       0.1354
     86  NH2        5.1920   50.8900   25.0260 N.pl3  58  ARG58       0.1354
     87  N         12.2580   43.1840   23.3990 N.3    61  ILE61      -0.1231
     88  CA        13.4780   43.6550   24.0350 C.3    61  ILE61       0.1692
     89  C         13.5750   43.1750   25.4830 C.2    61  ILE61       0.2591
     90  O         14.6010   42.6270   25.8990 O.2    61  ILE61      -0.2718
     91  CB        13.5480   45.1970   23.9960 C.3    61  ILE61       0.0266
     92  CG1       13.7850   45.6510   22.5520 C.3    61  ILE61       0.0019
     93  CG2       14.6500   45.7100   24.9370 C.3    61  ILE61       0.0020
     94  CD1       13.8530   47.1530   22.3750 C.3    61  ILE61       0.0001
     95  N         12.5010   43.3680   26.2430 N.am   62  LYS62      -0.1980
     96  CA        12.4870   42.9440   27.6340 C.3    62  LYS62       0.1596
     97  C         12.6260   41.4290   27.7130 C.2    62  LYS62       0.2287
     98  O         13.0950   40.8940   28.7150 O.2    62  LYS62      -0.2864
     99  CB        11.1910   43.4060   28.3260 C.3    62  LYS62       0.0298
    100  CG        10.9560   44.9250   28.2490 C.3    62  LYS62       0.0038
    101  CD        12.1460   45.7190   28.8080 C.3    62  LYS62       0.0206
    102  CE        11.9960   47.2300   28.5370 C.3    62  LYS62       0.1093
    103  NZ        11.9930   47.5700   27.0660 N.3    62  LYS62      -0.1314
    104  N          6.5530   50.2710   11.2830 N.3    71  LEU71      -0.1245
    105  CA         6.2210   51.4620   12.0510 C.3    71  LEU71       0.1561
    106  C          6.3500   52.7480   11.2670 C.2    71  LEU71       0.2260
    107  O          7.1890   52.8700   10.3780 O.2    71  LEU71      -0.2867
    108  CB         7.1250   51.5720   13.2890 C.3    71  LEU71       0.0270
    109  CG         6.6910   50.8730   14.5760 C.3    71  LEU71       0.0019
    110  CD1        7.6430   51.2460   15.6820 C.3    71  LEU71       0.0001
    111  CD2        5.2790   51.3090   14.9400 C.3    71  LEU71       0.0001
    112  N          7.5710   56.3750   11.0490 N.3    73  ASN73      -0.1240
    113  CA         8.6340   57.1480   11.6840 C.3    73  ASN73       0.1653
    114  C          8.7080   58.5090   11.0140 C.2    73  ASN73       0.2266
    115  O          8.0660   58.7390    9.9950 O.2    73  ASN73      -0.2867
    116  CB         9.9910   56.4530   11.5370 C.3    73  ASN73       0.1155
    117  CG        10.2340   55.3760   12.5920 C.2    73  ASN73       0.2627
    118  OD1       11.2790   54.7200   12.5860 O.2    73  ASN73      -0.2716
    119  ND2        9.2780   55.1950   13.5000 N.am   73  ASN73      -0.0877
    120  N          8.7180   52.4380    8.0720 N.3    83  ASN83      -0.1240
    121  CA         9.9110   51.6970    8.4230 C.3    83  ASN83       0.1653
    122  C          9.6320   50.2530    8.8100 C.2    83  ASN83       0.2266
    123  O          8.8770   49.9810    9.7470 O.2    83  ASN83      -0.2867
    124  CB        10.5990   52.4250    9.5840 C.3    83  ASN83       0.1155
    125  CG        11.8520   51.7200   10.0790 C.2    83  ASN83       0.2627
    126  OD1       12.3680   50.7960    9.4390 O.2    83  ASN83      -0.2716
    127  ND2       12.3610   52.1720   11.2290 N.am   83  ASN83      -0.0877
    128  N         11.1580   47.5520   10.4950 N.3    85  LEU85      -0.1245
    129  CA        12.2550   47.3610   11.4260 C.3    85  LEU85       0.1561
    130  C         12.3800   45.9390   11.9480 C.2    85  LEU85       0.2260
    131  O         11.3920   45.2890   12.2820 O.2    85  LEU85      -0.2867
    132  CB        12.0850   48.3160   12.6120 C.3    85  LEU85       0.0270
    133  CG        12.9960   48.1280   13.8290 C.3    85  LEU85       0.0019
    134  CD1       14.3870   48.6630   13.5230 C.3    85  LEU85       0.0001
    135  CD2       12.3940   48.8580   15.0210 C.3    85  LEU85       0.0001
    136  N         14.6680   43.8830   14.8240 N.3    87  VAL87      -0.1245
    137  CA        15.6140   43.9710   15.9300 C.3    87  VAL87       0.1561
    138  C         16.1090   42.5770   16.3110 C.2    87  VAL87       0.2260
    139  O         15.3170   41.6430   16.4550 O.2    87  VAL87      -0.2867
    140  CB        14.9630   44.6340   17.1780 C.3    87  VAL87       0.0252
    141  CG1       15.9220   44.5760   18.3670 C.3    87  VAL87       0.0019
    142  CG2       14.6080   46.0910   16.8730 C.3    87  VAL87       0.0019
    143  N         21.8200   44.9880   20.9370 N.3   100  PHE100     -0.1227
    144  CA        20.6750   44.7610   20.0880 C.3   100  PHE100      0.1736
    145  C         21.0410   45.3950   18.7640 C.2   100  PHE100      0.2595
    146  O         21.5570   46.5120   18.7420 O.2   100  PHE100     -0.2718
    147  CB        19.4240   45.4210   20.6550 C.3   100  PHE100      0.0547
    148  CG        18.5760   44.4920   21.4590 C.ar  100  PHE100     -0.0202
    149  CD1       17.8500   43.4860   20.8330 C.ar  100  PHE100     -0.0042
    150  CD2       18.4960   44.6210   22.8380 C.ar  100  PHE100     -0.0042
    151  CE1       17.0520   42.6240   21.5720 C.ar  100  PHE100     -0.0003
    152  CE2       17.7040   43.7650   23.5820 C.ar  100  PHE100     -0.0003
    153  CZ        16.9800   42.7650   22.9490 C.ar  100  PHE100     -0.0000
    154  N         20.8280   44.6720   17.6690 N.am  101  VAL101     -0.1966
    155  CA        21.1280   45.2240   16.3520 C.3   101  VAL101      0.1727
    156  C         19.8230   45.4910   15.6270 C.2   101  VAL101      0.2616
    157  O         18.8700   44.7200   15.7280 O.2   101  VAL101     -0.2715
    158  CB        22.0160   44.2860   15.4740 C.3   101  VAL101      0.0290
    159  CG1       23.3740   44.0760   16.1370 C.3   101  VAL101      0.0023
    160  CG2       21.3280   42.9630   15.2270 C.3   101  VAL101      0.0023
    161  N         19.7790   46.5960   14.9030 N.am  102  GLY102     -0.1955
    162  CA        18.5690   46.9270   14.1890 C.3   102  GLY102      0.1869
    163  C         18.7900   47.2230   12.7230 C.2   102  GLY102      0.2309
    164  O         19.7150   47.9490   12.3490 O.2   102  GLY102     -0.2863
    165  N         16.8130   48.7430    9.4840 N.3   104  GLN104     -0.1245
    166  CA        15.6470   49.5110    9.0550 C.3   104  GLN104      0.1566
    167  C         15.5740   49.5950    7.5410 C.2   104  GLN104      0.2260
    168  O         16.5920   49.7710    6.8680 O.2   104  GLN104     -0.2867
    169  CB        15.6890   50.9380    9.6180 C.3   104  GLN104      0.0367
    170  CG        15.6350   51.0170   11.1200 C.3   104  GLN104      0.0905
    171  CD        16.9880   51.3170   11.7420 C.2   104  GLN104      0.2608
    172  OE1       18.0380   51.2000   11.0860 O.2   104  GLN104     -0.2717
    173  NE2       16.9760   51.6950   13.0150 N.am  104  GLN104     -0.0878
@<TRIPOS>BOND
     1   168   167    2
     2   167   166    1
     3   120   121    1
     4   121   122    1
     5   121   124    1
     6   122   123    2
     7   166   165    1
     8   166   169    1
     9   126   125    2
    10   124   125    1
    11   169   170    1
    12   115   114    2
    13   125   127   am
    14   107   106    2
    15   128   129    1
    16   114   113    1
    17   112   113    1
    18   172   171    2
    19   170   171    1
    20   106   105    1
    21   104   105    1
    22   129   130    1
    23   129   132    1
    24   116   113    1
    25   116   117    1
    26   171   173   am
    27   130   131    2
    28   105   108    1
    29   164   163    2
    30   118   117    2
    31   117   119   am
    32   132   133    1
    33   163   162    1
    34     1     2    1
    35   108   109    1
    36    51    49    1
    37   134   133    1
    38     6     5    1
    39    50    49    1
    40   133   135    1
    41     2     5    1
    42     2     3    1
    43    47    46    2
    44   162   161    1
    45    49    48    1
    46   109   111    1
    47   109   110    1
    48     5     7    1
    49    48    45    1
    50   136   137    1
    51   161   156   am
    52     4     3    2
    53   160   158    1
    54    46    45    1
    55    46    52   am
    56    45    44    1
    57   158   159    1
    58   158   155    1
    59   156   157    2
    60   156   155    1
    61   137   138    1
    62   137   140    1
    63   138   139    2
    64   155   154    1
    65    52    53    1
    66    53    54    1
    67    53    56    1
    68    54    55    2
    69   142   140    1
    70   140   141    1
    71    57    56    1
    72    57    58    1
    73    75    73    1
    74    32    31    1
    75   154   145   am
    76    30    29    2
    77    31    28    1
    78    73    72    1
    79    60    58   am
    80    58    59    2
    81   146   145    2
    82    61    62    1
    83   145   144    1
    84    29    28    1
    85    29    33   am
    86    28    27    1
    87    67    65    1
    88    36    35    2
    89     8     9    1
    90    72    74    1
    91    72    69    1
    92    35    34    1
    93    62    65    1
    94    62    63    1
    95    33    34    1
    96    34    37    1
    97   144   147    1
    98   144   143    1
    99    65    66    1
   100    68    69    1
   101    69    70    1
   102    27    21   am
   103   147   148    1
   104     9    12    1
   105     9    10    1
   106   149   148   ar
   107   149   151   ar
   108    63    64    2
   109    22    21    2
   110    21    20    1
   111    37    38    1
   112   148   150   ar
   113   151   153   ar
   114    70    71    2
   115    70    76   am
   116    11    10    2
   117    25    24    2
   118    94    92    1
   119    76    77    1
   120    38    39    1
   121    20    19    1
   122    20    23    1
   123    92    91    1
   124   150   152   ar
   125   153   152   ar
   126    16    15    2
   127    24    23    1
   128    24    26   am
   129    87    88    1
   130    39    40    1
   131    77    78    1
   132    77    80    1
   133    91    88    1
   134    91    93    1
   135    88    89    1
   136    15    14    1
   137    17    18    1
   138    17    14    1
   139    40    41    2
   140    78    79    2
   141    80    81    1
   142    86    84    1
   143    14    13    1
   144    41    42    1
   145    41    43    1
   146    89    90    2
   147    89    95   am
   148    83    84    2
   149    83    82    1
   150    84    85    1
   151    81    82    1
   152    95    96    1
   153   103   102    1
   154    96    97    1
   155    96    99    1
   156    97    98    2
   157   100    99    1
   158   100   101    1
   159   102   101    1
