@<TRIPOS>MOLECULE
tmp/1naaA03.pdb
 155 150 0 0 0
SMALL
GASTEIGER

@<TRIPOS>ATOM
      1  N         41.7820   25.1460   16.1280 N.3    64  PHE64      -0.1227
      2  CA        40.3830   24.9820   15.7650 C.3    64  PHE64       0.1736
      3  C         39.9990   25.7370   14.4520 C.2    64  PHE64       0.2595
      4  O         39.4800   25.1310   13.4980 O.2    64  PHE64      -0.2718
      5  CB        39.4130   25.3700   16.9050 C.3    64  PHE64       0.0547
      6  CG        37.9760   25.4200   16.4670 C.ar   64  PHE64      -0.0202
      7  CD1       37.3440   24.2610   16.0210 C.ar   64  PHE64      -0.0042
      8  CD2       37.2810   26.6140   16.4820 C.ar   64  PHE64      -0.0042
      9  CE1       36.0090   24.3210   15.5870 C.ar   64  PHE64      -0.0003
     10  CE2       35.9490   26.6970   16.0600 C.ar   64  PHE64      -0.0003
     11  CZ        35.3010   25.5480   15.6160 C.ar   64  PHE64      -0.0000
     12  N         40.2430   27.0460   14.4320 N.am   65  GLU65      -0.1979
     13  CA        39.7740   27.8780   13.2980 C.3    65  GLU65       0.1602
     14  C         40.3910   27.4400   11.9690 C.2    65  GLU65       0.2287
     15  O         39.8230   27.6950   10.8950 O.2    65  GLU65      -0.2864
     16  CB        39.9420   29.3540   13.5210 C.3    65  GLU65       0.0415
     17  CG        39.0410   29.9560   14.6060 C.3    65  GLU65       0.1163
     18  CD        37.5520   29.9820   14.2720 C.2    65  GLU65       0.3649
     19  OE1       37.1690   29.7680   13.0970 O.co2  65  GLU65      -0.2457
     20  OE2       36.7410   30.2660   15.2310 O.co2  65  GLU65      -0.2457
     21  N         38.7910   25.1900    9.0900 N.3    68  PHE68      -0.1241
     22  CA        37.9360   25.7500    8.0800 C.3    68  PHE68       0.1605
     23  C         38.7130   26.4080    6.9790 C.2    68  PHE68       0.2264
     24  O         38.1080   26.8870    6.0090 O.2    68  PHE68      -0.2867
     25  CB        37.0150   26.7720    8.7420 C.3    68  PHE68       0.0534
     26  CG        36.1950   26.1920    9.8360 C.ar   68  PHE68      -0.0203
     27  CD1       35.1340   25.3580    9.5630 C.ar   68  PHE68      -0.0042
     28  CD2       36.5380   26.3970   11.1480 C.ar   68  PHE68      -0.0042
     29  CE1       34.4170   24.7770   10.5940 C.ar   68  PHE68      -0.0003
     30  CE2       35.7980   25.8240   12.1550 C.ar   68  PHE68      -0.0003
     31  CZ        34.7690   25.0510   11.9050 C.ar   68  PHE68      -0.0000
     32  N         28.7710   20.6360    7.1490 N.3    83  PHE83      -0.1241
     33  CA        29.8690   20.1380    7.9240 C.3    83  PHE83       0.1605
     34  C         29.4490   18.9700    8.8440 C.2    83  PHE83       0.2264
     35  O         28.4810   19.0590    9.6120 O.2    83  PHE83      -0.2867
     36  CB        30.4540   21.1850    8.8550 C.3    83  PHE83       0.0534
     37  CG        31.1920   22.3060    8.2020 C.ar   83  PHE83      -0.0203
     38  CD1       32.1940   22.0750    7.3220 C.ar   83  PHE83      -0.0042
     39  CD2       30.8670   23.5970    8.4990 C.ar   83  PHE83      -0.0042
     40  CE1       32.9020   23.1250    6.7120 C.ar   83  PHE83      -0.0003
     41  CE2       31.5790   24.6790    7.8570 C.ar   83  PHE83      -0.0003
     42  CZ        32.5990   24.3910    6.9960 C.ar   83  PHE83      -0.0000
     43  N         35.2920   19.8710   16.4430 N.3    95  ASN95      -0.1225
     44  CA        34.4060   20.9420   16.8940 C.3    95  ASN95       0.1785
     45  C         35.1010   21.9970   17.7570 C.2    95  ASN95       0.2598
     46  O         36.2520   21.8320   18.1850 O.2    95  ASN95      -0.2718
     47  CB        33.1340   20.4060   17.5780 C.3    95  ASN95       0.1169
     48  CG        33.3920   19.6440   18.9050 C.2    95  ASN95       0.2627
     49  OD1       34.5070   19.6470   19.5020 O.2    95  ASN95      -0.2716
     50  ND2       32.3280   18.9860   19.3810 N.am   95  ASN95      -0.0877
     51  N         34.3930   23.0980   17.9450 N.am   96  GLY96      -0.1942
     52  CA        34.8360   24.1540   18.8540 C.3    96  GLY96       0.2014
     53  C         35.0130   23.7290   20.2830 C.2    96  GLY96       0.2639
     54  O         35.6880   24.4070   21.0360 O.2    96  GLY96      -0.2714
     55  N         34.4280   22.5890   20.6520 N.am   97  ALA97      -0.1963
     56  CA        34.5450   21.9700   21.9620 C.3    97  ALA97       0.1728
     57  C         33.8560   22.6920   23.1300 C.2    97  ALA97       0.2616
     58  O         34.0220   22.2960   24.2800 O.2    97  ALA97      -0.2715
     59  CB        35.9420   21.6210   22.3400 C.3    97  ALA97       0.0334
     60  N         33.0330   23.6790   22.8280 N.am   98  LEU98      -0.1977
     61  CA        32.2750   24.3370   23.8940 C.3    98  LEU98       0.1596
     62  C         31.4240   23.2800   24.5850 C.2    98  LEU98       0.2287
     63  O         30.7740   22.4670   23.9230 O.2    98  LEU98      -0.2864
     64  CB        31.4020   25.4390   23.3650 C.3    98  LEU98       0.0297
     65  CG        32.1360   26.6580   22.8230 C.3    98  LEU98       0.0022
     66  CD1       31.2500   27.5560   21.9650 C.3    98  LEU98       0.0001
     67  CD2       32.8280   27.4130   23.9630 C.3    98  LEU98       0.0001
     68  N         38.9540   29.1770   19.7940 N.3   348  SER348     -0.1203
     69  CA        38.7360   30.5810   19.6040 C.3   348  SER348      0.2005
     70  C         37.6980   31.2760   20.5000 C.2   348  SER348      0.2460
     71  O         37.8460   32.4440   20.8000 O.2   348  SER348     -0.2732
     72  CB        38.4450   30.8170   18.1590 C.3   348  SER348      0.2103
     73  OG        37.4190   29.9760   17.7370 O.3   348  SER348     -0.2182
     74  N         36.6220   30.5990   20.9350 N.am  349  PRO349     -0.2728
     75  CA        35.6600   31.2600   21.8170 C.3   349  PRO349      0.1401
     76  C         36.2580   31.7060   23.1380 C.2   349  PRO349      0.2269
     77  O         37.0600   30.9980   23.7330 O.2   349  PRO349     -0.2865
     78  CB        34.6320   30.1630   22.0700 C.3   349  PRO349      0.0296
     79  CG        34.6720   29.3180   20.8190 C.3   349  PRO349      0.0237
     80  CD        36.1910   29.2290   20.5840 C.3   349  PRO349      0.0939
     81  N         28.1540   33.7080   21.4380 N.3   370  THR370     -0.1218
     82  CA        29.4650   33.1670   21.5230 C.3   370  THR370      0.1862
     83  C         30.3850   34.2760   20.9640 C.2   370  THR370      0.2287
     84  O         30.2010   34.6990   19.8280 O.2   370  THR370     -0.2866
     85  CB        29.6200   31.9180   20.6940 C.3   370  THR370      0.1770
     86  OG1       28.8870   30.8540   21.2840 O.3   370  THR370     -0.2211
     87  CG2       31.1280   31.5310   20.6600 C.3   370  THR370      0.0375
     88  N         34.2040   35.6670   19.9410 N.3   372  ARG372     -0.1245
     89  CA        35.5920   35.2700   19.6530 C.3   372  ARG372      0.1563
     90  C         36.3230   36.3850   18.9280 C.2   372  ARG372      0.2260
     91  O         35.6980   37.1790   18.1880 O.2   372  ARG372     -0.2867
     92  CB        35.5960   34.0090   18.7840 C.3   372  ARG372      0.0307
     93  CG        35.2540   34.2160   17.3220 C.3   372  ARG372      0.0489
     94  CD        35.3660   32.9280   16.5010 C.3   372  ARG372      0.2205
     95  NE        35.0930   33.0120   15.0720 N.pl3 372  ARG372     -0.0865
     96  CZ        36.0240   33.3890   14.1470 C.cat 372  ARG372      0.5346
     97  NH1       37.1840   33.8960   14.5260 N.pl3 372  ARG372      0.1354
     98  NH2       35.7610   33.3190   12.8740 N.pl3 372  ARG372      0.1354
     99  N         34.8850   35.4220   10.3380 N.3   376  ALA376     -0.1245
    100  CA        34.8950   34.6760    9.0620 C.3   376  ALA376      0.1562
    101  C         34.5540   35.5240    7.8890 C.2   376  ALA376      0.2260
    102  O         35.1560   35.3830    6.8360 O.2   376  ALA376     -0.2867
    103  CB        33.8830   33.5180    9.1610 C.3   376  ALA376      0.0290
    104  N         22.6930   33.0630   18.7630 N.3   395  TYR395     -0.1241
    105  CA        21.8430   31.9030   18.4510 C.3   395  TYR395      0.1605
    106  C         20.5450   31.9660   19.2220 C.2   395  TYR395      0.2264
    107  O         20.4860   32.6090   20.2770 O.2   395  TYR395     -0.2867
    108  CB        22.5010   30.6130   18.9880 C.3   395  TYR395      0.0534
    109  CG        23.8940   30.3320   18.5090 C.ar  395  TYR395     -0.0201
    110  CD1       24.1410   29.6370   17.3260 C.ar  395  TYR395     -0.0009
    111  CD2       25.0150   30.7980   19.2270 C.ar  395  TYR395     -0.0009
    112  CE1       25.4830   29.3590   16.9090 C.ar  395  TYR395      0.0417
    113  CE2       26.2770   30.5570   18.8040 C.ar  395  TYR395      0.0417
    114  CZ        26.5310   29.8320   17.6490 C.ar  395  TYR395      0.1957
    115  OH        27.8700   29.5720   17.2800 O.3   395  TYR395     -0.2866
    116  N         23.5480   27.9820    9.5400 N.3   472  ASN472     -0.1225
    117  CA        23.8340   26.6360   10.0640 C.3   472  ASN472      0.1785
    118  C         24.7800   26.7300   11.2530 C.2   472  ASN472      0.2598
    119  O         25.8450   27.3570   11.1800 O.2   472  ASN472     -0.2718
    120  CB        24.4370   25.7840    8.9400 C.3   472  ASN472      0.1169
    121  CG        24.6700   24.3170    9.2940 C.2   472  ASN472      0.2627
    122  OD1       24.6050   23.8840   10.4480 O.2   472  ASN472     -0.2716
    123  ND2       24.9320   23.5130    8.2190 N.am  472  ASN472     -0.0877
    124  N         24.3220   26.1530   12.3440 N.am  473  SER473     -0.1938
    125  CA        25.0510   26.1370   13.6090 C.3   473  SER473      0.2055
    126  C         25.7190   24.7870   13.9430 C.2   473  SER473      0.2643
    127  O         26.2570   24.5670   15.0570 O.2   473  SER473     -0.2714
    128  CB        24.1100   26.5850   14.7480 C.3   473  SER473      0.2130
    129  OG        23.6070   27.8950   14.5860 O.3   473  SER473     -0.2179
    130  N         25.6520   23.8460   12.9850 N.am  474  ASN474     -0.1957
    131  CA        26.1530   22.4910   13.1120 C.3   474  ASN474      0.1819
    132  C         25.6450   21.7560   14.3420 C.2   474  ASN474      0.2621
    133  O         26.3390   20.9900   14.9340 O.2   474  ASN474     -0.2715
    134  CB        27.6410   22.5170   13.1610 C.3   474  ASN474      0.1195
    135  CG        28.2490   23.3820   12.1050 C.2   474  ASN474      0.2630
    136  OD1       28.0680   23.1510   10.9170 O.2   474  ASN474     -0.2716
    137  ND2       29.0160   24.4190   12.5410 N.am  474  ASN474     -0.0877
    138  N         24.4150   21.9930   14.7200 N.am  475  HIS475     -0.1973
    139  CA        23.8730   21.3960   15.9540 C.3   475  HIS475      0.1656
    140  C         22.6540   20.5170   15.6710 C.2   475  HIS475      0.2291
    141  O         21.7520   20.4250   16.5040 O.2   475  HIS475     -0.2864
    142  CB        23.5060   22.4920   16.9180 C.3   475  HIS475      0.0771
    143  CG        24.6880   23.2400   17.4420 C.ar  475  HIS475      0.0820
    144  ND1       24.5810   24.4790   18.0410 N.ar  475  HIS475     -0.2267
    145  CD2       26.0100   22.9210   17.4610 C.ar  475  HIS475      0.1154
    146  CE1       25.7850   24.8920   18.3970 C.ar  475  HIS475      0.1986
    147  NE2       26.6730   23.9740   18.0530 N.ar  475  HIS475     -0.2212
    148  N         25.4020   24.9980   23.3930 N.3   518  ASN518     -0.1240
    149  CA        25.9570   24.1210   22.3610 C.3   518  ASN518      0.1653
    150  C         25.7250   22.6680   22.8600 C.2   518  ASN518      0.2266
    151  O         25.8580   22.4040   24.0440 O.2   518  ASN518     -0.2867
    152  CB        27.4670   24.3990   22.1310 C.3   518  ASN518      0.1155
    153  CG        27.7450   25.8440   21.9130 C.2   518  ASN518      0.2627
    154  OD1       27.6090   26.6450   22.8560 O.2   518  ASN518     -0.2716
    155  ND2       28.1730   26.1940   20.7120 N.am  518  ASN518     -0.0877
@<TRIPOS>BOND
     1    24    23    2
     2    40    42   ar
     3    40    38   ar
     4   102   101    2
     5    23    22    1
     6    42    41   ar
     7    32    33    1
     8    38    37   ar
     9    41    39   ar
    10   101   100    1
    11    33    34    1
    12    33    36    1
    13    22    25    1
    14    22    21    1
    15    37    39   ar
    16    37    36    1
    17   123   121   am
    18    25    26    1
    19    34    35    2
    20   120   121    1
    21   120   117    1
    22   100   103    1
    23   100    99    1
    24   121   122    2
    25   116   117    1
    26    27    26   ar
    27    27    29   ar
    28    26    28   ar
    29   117   118    1
    30    29    31   ar
    31    15    14    2
    32   136   135    2
    33    28    30   ar
    34   119   118    2
    35   118   124   am
    36    31    30   ar
    37    14    13    1
    38   135   137   am
    39   135   134    1
    40   124   125    1
    41    98    96    1
    42   130   131    1
    43   130   126   am
    44    19    18   ar
    45   131   134    1
    46   131   132    1
    47    13    16    1
    48    13    12    1
    49     4     3    2
    50    16    17    1
    51   125   126    1
    52   125   128    1
    53   126   127    2
    54    96    97    1
    55    96    95    2
    56    18    17    1
    57    18    20   ar
    58   132   138   am
    59   132   133    2
    60    12     3   am
    61     3     2    1
    62   129   128    1
    63   138   139    1
    64    95    94    1
    65     9    11   ar
    66     9     7   ar
    67    11    10   ar
    68   140   139    1
    69   140   141    2
    70     2     1    1
    71     2     5    1
    72   139   142    1
    73     7     6   ar
    74    10     8   ar
    75    43    44    1
    76     6     8   ar
    77     6     5    1
    78    94    93    1
    79    44    47    1
    80    44    45    1
    81   112   110   ar
    82   112   114   ar
    83   142   143    1
    84   115   114    1
    85    93    92    1
    86   110   109   ar
    87   143   145   ar
    88   143   144   ar
    89   145   147   ar
    90    47    48    1
    91   114   113   ar
    92    73    72    1
    93    45    51   am
    94    45    46    2
    95    51    52    1
    96   144   146   ar
    97   147   146   ar
    98    72    69    1
    99    91    90    2
   100   105   104    1
   101   105   108    1
   102   105   106    1
   103   109   108    1
   104   109   111   ar
   105    92    89    1
   106   113   111   ar
   107    52    53    1
   108    48    50   am
   109    48    49    2
   110    90    89    1
   111   106   107    2
   112    69    68    1
   113    69    70    1
   114    89    88    1
   115    84    83    2
   116    53    55   am
   117    53    54    2
   118    70    71    2
   119    70    74   am
   120    80    79    1
   121    80    74    1
   122    55    56    1
   123    87    85    1
   124    85    86    1
   125    85    82    1
   126   155   153   am
   127    79    78    1
   128    74    75    1
   129    83    82    1
   130    81    82    1
   131    75    78    1
   132    75    76    1
   133   153   152    1
   134   153   154    2
   135    56    59    1
   136    56    57    1
   137    66    65    1
   138   152   149    1
   139   149   150    1
   140   149   148    1
   141    65    64    1
   142    65    67    1
   143    60    57   am
   144    60    61    1
   145   150   151    2
   146    57    58    2
   147    76    77    2
   148    64    61    1
   149    61    62    1
   150    63    62    2
