@<TRIPOS>MOLECULE
tmp/1nakE00.pdb
 111 113 0 0 0
SMALL
GASTEIGER

@<TRIPOS>ATOM
      1  N         31.6140   77.7240   74.9730 N.3    31  SER31      -0.1202
      2  CA        30.6390   76.7560   75.4480 C.3    31  SER31       0.2023
      3  C         31.1720   75.3260   75.3830 C.2    31  SER31       0.2658
      4  O         30.7040   74.4570   76.1160 O.2    31  SER31      -0.2713
      5  CB        29.3420   76.8750   74.6510 C.3    31  SER31       0.2104
      6  OG        29.5970   76.8450   73.2640 O.3    31  SER31      -0.2182
      7  N         32.1570   75.0800   74.5220 N.am   32  GLY32      -0.1718
      8  CA        32.7030   73.7360   74.4230 C.2    32  GLY32       0.1480
      9  C         34.0480   73.5900   73.7240 C.2    32  GLY32       0.2820
     10  O         34.7270   74.5820   73.4360 O.2    32  GLY32      -0.2669
     11  N         34.4250   72.3350   73.4610 N.am   33  TYR33      -0.1925
     12  CA        35.6810   71.9890   72.7910 C.3    33  TYR33       0.1774
     13  C         35.5090   72.0100   71.2660 C.2    33  TYR33       0.2620
     14  O         34.4800   71.5760   70.7530 O.2    33  TYR33      -0.2715
     15  CB        36.1200   70.5870   73.2140 C.3    33  TYR33       0.0574
     16  CG        36.6060   70.4550   74.6410 C.ar   33  TYR33      -0.0198
     17  CD1       35.8220   70.8730   75.7140 C.ar   33  TYR33      -0.0009
     18  CD2       37.8460   69.8780   74.9170 C.ar   33  TYR33      -0.0009
     19  CE1       36.2600   70.7180   77.0310 C.ar   33  TYR33       0.0417
     20  CE2       38.2930   69.7160   76.2280 C.ar   33  TYR33       0.0417
     21  CZ        37.4970   70.1380   77.2820 C.ar   33  TYR33       0.1957
     22  OH        37.9380   69.9830   78.5810 O.3    33  TYR33      -0.2866
     23  N         36.5150   72.4890   70.5390 N.am   34  TRP34      -0.1960
     24  CA        36.4210   72.5420   69.0800 C.3    34  TRP34       0.1771
     25  C         37.5110   71.7300   68.3740 C.2    34  TRP34       0.2619
     26  O         38.6210   71.5820   68.8880 O.2    34  TRP34      -0.2715
     27  CB        36.4360   73.9990   68.6120 C.3    34  TRP34       0.0590
     28  CG        35.3940   74.8180   69.3190 C.ar   34  TRP34       0.0006
     29  CD1       35.5080   75.4060   70.5490 C.ar   34  TRP34       0.0946
     30  CD2       34.0380   75.0360   68.8960 C.ar   34  TRP34       0.0152
     31  NE1       34.3100   75.9660   70.9190 N.ar   34  TRP34      -0.2442
     32  CE2       33.3920   75.7550   69.9240 C.ar   34  TRP34       0.0810
     33  CE3       33.3100   74.6910   67.7510 C.ar   34  TRP34       0.0012
     34  CZ2       32.0450   76.1310   69.8410 C.ar   34  TRP34       0.0191
     35  CZ3       31.9680   75.0670   67.6720 C.ar   34  TRP34       0.0001
     36  CH2       31.3540   75.7790   68.7130 C.ar   34  TRP34       0.0015
     37  N         37.1830   71.2180   67.1860 N.am   35  ASN35      -0.1972
     38  CA        38.0920   70.3700   66.4180 C.3    35  ASN35       0.1688
     39  C         38.7360   70.9310   65.1550 C.2    35  ASN35       0.2292
     40  O         38.1180   71.6860   64.4000 O.2    35  ASN35      -0.2864
     41  CB        37.3680   69.0850   66.0410 C.3    35  ASN35       0.1181
     42  CG        36.9880   68.2610   67.2420 C.2    35  ASN35       0.2629
     43  OD1       37.8510   67.8150   67.9930 O.2    35  ASN35      -0.2716
     44  ND2       35.6920   68.0530   67.4340 N.am   35  ASN35      -0.0877
     45  N         43.2780   63.9640   62.1090 N.3    47  TYR47      -0.1241
     46  CA        42.8300   64.7900   63.2130 C.3    47  TYR47       0.1605
     47  C         44.0600   65.5910   63.6320 C.2    47  TYR47       0.2264
     48  O         45.1380   65.0270   63.8330 O.2    47  TYR47      -0.2867
     49  CB        42.3550   63.9140   64.3670 C.3    47  TYR47       0.0534
     50  CG        41.7560   64.7030   65.5010 C.ar   47  TYR47      -0.0201
     51  CD1       40.5430   65.3780   65.3410 C.ar   47  TYR47      -0.0009
     52  CD2       42.4070   64.7900   66.7340 C.ar   47  TYR47      -0.0009
     53  CE1       39.9940   66.1160   66.3810 C.ar   47  TYR47       0.0417
     54  CE2       41.8670   65.5270   67.7790 C.ar   47  TYR47       0.0417
     55  CZ        40.6610   66.1850   67.5970 C.ar   47  TYR47       0.1957
     56  OH        40.1150   66.8970   68.6390 O.3    47  TYR47      -0.2866
     57  N         42.7300   69.8090   69.2770 N.3    50  TYR50      -0.1241
     58  CA        41.5660   70.5530   69.7370 C.3    50  TYR50       0.1605
     59  C         41.8420   71.6770   70.7340 C.2    50  TYR50       0.2264
     60  O         42.8880   71.7250   71.3830 O.2    50  TYR50      -0.2867
     61  CB        40.5300   69.5820   70.3230 C.3    50  TYR50       0.0534
     62  CG        40.9390   68.8670   71.6030 C.ar   50  TYR50      -0.0201
     63  CD1       40.8690   69.5130   72.8450 C.ar   50  TYR50      -0.0009
     64  CD2       41.3470   67.5280   71.5790 C.ar   50  TYR50      -0.0009
     65  CE1       41.1870   68.8450   74.0280 C.ar   50  TYR50       0.0417
     66  CE2       41.6670   66.8510   72.7530 C.ar   50  TYR50       0.0417
     67  CZ        41.5830   67.5150   73.9730 C.ar   50  TYR50       0.1957
     68  OH        41.8940   66.8460   75.1340 O.3    50  TYR50      -0.2866
     69  N         32.4670   70.8260   65.3510 N.3    97  ILE97      -0.1231
     70  CA        32.0050   70.9830   66.7160 C.3    97  ILE97       0.1692
     71  C         32.4100   69.7400   67.5010 C.2    97  ILE97       0.2592
     72  O         32.5880   68.6670   66.9200 O.2    97  ILE97      -0.2718
     73  CB        30.4810   71.1550   66.7620 C.3    97  ILE97       0.0266
     74  CG1       30.0350   71.4300   68.1950 C.3    97  ILE97       0.0019
     75  CG2       29.8090   69.9210   66.2290 C.3    97  ILE97       0.0020
     76  CD1       28.5390   71.5900   68.3540 C.3    97  ILE97       0.0001
     77  N         32.5590   69.9050   68.8150 N.am   98  ASP98      -0.1960
     78  CA        32.9560   68.8380   69.7320 C.3    98  ASP98       0.1840
     79  C         32.5870   67.4170   69.2830 C.2    98  ASP98       0.2622
     80  O         33.4690   66.5950   69.0230 O.2    98  ASP98      -0.2715
     81  CB        32.3650   69.1200   71.1240 C.3    98  ASP98       0.1450
     82  CG        33.0520   68.3300   72.2210 C.2    98  ASP98       0.3671
     83  OD1       34.3000   68.3090   72.2310 O.co2  98  ASP98      -0.2456
     84  OD2       32.3540   67.7420   73.0760 O.co2  98  ASP98      -0.2456
     85  N         31.2900   67.1290   69.1880 N.am   99  ASP99      -0.1957
     86  CA        30.8480   65.7940   68.7960 C.3    99  ASP99       0.1840
     87  C         30.8950   65.5040   67.2910 C.2    99  ASP99       0.2622
     88  O         30.2970   64.5410   66.8180 O.2    99  ASP99      -0.2715
     89  CB        29.4430   65.5180   69.3540 C.3    99  ASP99       0.1450
     90  CG        29.4210   65.4360   70.8860 C.2    99  ASP99       0.3671
     91  OD1       30.3510   64.8420   71.4650 O.co2  99  ASP99      -0.2456
     92  OD2       28.4700   65.9440   71.5160 O.co2  99  ASP99      -0.2456
     93  N         31.6190   66.3370   66.5480 N.am  100  PHE100     -0.1960
     94  CA        31.7940   66.1760   65.1000 C.3   100  PHE100      0.1771
     95  C         30.5260   66.1180   64.2690 C.2   100  PHE100      0.2619
     96  O         30.5680   65.6470   63.1370 O.2   100  PHE100     -0.2715
     97  CB        32.6080   64.9090   64.7830 C.3   100  PHE100      0.0574
     98  CG        33.9550   64.8560   65.4520 C.ar  100  PHE100     -0.0200
     99  CD1       34.1160   64.2080   66.6690 C.ar  100  PHE100     -0.0042
    100  CD2       35.0620   65.4570   64.8600 C.ar  100  PHE100     -0.0042
    101  CE1       35.3620   64.1550   67.2940 C.ar  100  PHE100     -0.0003
    102  CE2       36.3190   65.4150   65.4730 C.ar  100  PHE100     -0.0003
    103  CZ        36.4680   64.7580   66.6980 C.ar  100  PHE100     -0.0000
    104  N         29.4040   66.5850   64.8060 N.am  101  ASP101     -0.1971
    105  CA        28.1570   66.5440   64.0500 C.3   101  ASP101      0.1709
    106  C         27.9010   67.8020   63.2270 C.2   101  ASP101      0.2293
    107  O         26.8580   67.9350   62.5890 O.2   101  ASP101     -0.2864
    108  CB        26.9720   66.2810   64.9850 C.3   101  ASP101      0.1436
    109  CG        26.8710   67.2910   66.1150 C.2   101  ASP101      0.3671
    110  OD1       27.7480   67.2830   67.0010 O.co2 101  ASP101     -0.2456
    111  OD2       25.9080   68.0920   66.1240 O.co2 101  ASP101     -0.2456
@<TRIPOS>BOND
     1    45    46    1
     2   107   106    2
     3    96    95    2
     4    46    47    1
     5    46    49    1
     6   106   105    1
     7    47    48    2
     8   105   104    1
     9   105   108    1
    10    95   104   am
    11    95    94    1
    12    49    50    1
    13    40    39    2
    14    97    94    1
    15    97    98    1
    16   100    98   ar
    17   100   102   ar
    18   108   109    1
    19    94    93    1
    20    39    38    1
    21    51    50   ar
    22    51    53   ar
    23    69    70    1
    24    98    99   ar
    25   102   103   ar
    26    50    52   ar
    27    41    38    1
    28    41    42    1
    29   109   111   ar
    30   109   110   ar
    31    75    73    1
    32    53    55   ar
    33    38    37    1
    34    93    87   am
    35    99   101   ar
    36   103   101   ar
    37    70    73    1
    38    70    71    1
    39    52    54   ar
    40    73    74    1
    41    88    87    2
    42    72    71    2
    43    37    25   am
    44    42    44   am
    45    42    43    2
    46    87    86    1
    47    71    77   am
    48    55    54   ar
    49    55    56    1
    50    35    33   ar
    51    35    36   ar
    52    33    30   ar
    53    74    76    1
    54    25    26    2
    55    25    24    1
    56    27    24    1
    57    27    28    1
    58    36    34   ar
    59    86    85    1
    60    86    89    1
    61    77    78    1
    62    30    28   ar
    63    30    32   ar
    64    80    79    2
    65    24    23    1
    66    85    79   am
    67    57    58    1
    68    79    78    1
    69    28    29   ar
    70    89    90    1
    71    78    81    1
    72    58    61    1
    73    58    59    1
    74    34    32   ar
    75    32    31   ar
    76    61    62    1
    77    23    13   am
    78    29    31   ar
    79    59    60    2
    80    14    13    2
    81    90    91   ar
    82    90    92   ar
    83    81    82    1
    84    13    12    1
    85    64    62   ar
    86    64    66   ar
    87    62    63   ar
    88    82    83   ar
    89    82    84   ar
    90    66    67   ar
    91    12    15    1
    92    12    11    1
    93    63    65   ar
    94    15    16    1
    95     6     5    1
    96    10     9    2
    97    11     9   am
    98     9     8    1
    99    67    65   ar
   100    67    68    1
   101     8     7    2
   102     7     3    1
   103    16    18   ar
   104    16    17   ar
   105     5     2    1
   106    18    20   ar
   107     1     2    1
   108     3     2    1
   109     3     4    2
   110    17    19   ar
   111    20    21   ar
   112    19    21   ar
   113    21    22    1
