@<TRIPOS>MOLECULE
tmp/1nakA00.pdb
 110 108 0 0 0
SMALL
GASTEIGER

@<TRIPOS>ATOM
      1  N         49.0740  118.4940   26.1980 N.3    37  TYR37      -0.1241
      2  CA        48.4750  117.3060   26.7650 C.3    37  TYR37       0.1605
      3  C         47.9960  117.4510   28.2010 C.2    37  TYR37       0.2264
      4  O         48.6260  116.9690   29.1380 O.2    37  TYR37      -0.2867
      5  CB        49.4530  116.1440   26.6480 C.3    37  TYR37       0.0534
      6  CG        49.7970  115.8150   25.2160 C.ar   37  TYR37      -0.0201
      7  CD1       50.8700  116.4330   24.5690 C.ar   37  TYR37      -0.0009
      8  CD2       49.0120  114.9280   24.4850 C.ar   37  TYR37      -0.0009
      9  CE1       51.1450  116.1760   23.2270 C.ar   37  TYR37       0.0417
     10  CE2       49.2820  114.6670   23.1430 C.ar   37  TYR37       0.0417
     11  CZ        50.3430  115.2920   22.5260 C.ar   37  TYR37       0.1957
     12  OH        50.5940  115.0240   21.2060 O.3    37  TYR37      -0.2866
     13  N         44.4160  116.8730   30.3310 N.3    39  HIS39      -0.1241
     14  CA        43.1170  116.2360   30.1800 C.3    39  HIS39       0.1621
     15  C         42.3000  116.2980   31.4410 C.2    39  HIS39       0.2264
     16  O         42.8230  116.5890   32.5150 O.2    39  HIS39      -0.2867
     17  CB        43.3100  114.7750   29.8020 C.3    39  HIS39       0.0745
     18  CG        44.5580  114.5220   29.0210 C.ar   39  HIS39       0.0817
     19  ND1       44.7530  115.0200   27.7520 N.ar   39  HIS39      -0.2268
     20  CD2       45.6810  113.8330   29.3320 C.ar   39  HIS39       0.1154
     21  CE1       45.9420  114.6470   27.3120 C.ar   39  HIS39       0.1986
     22  NE2       46.5260  113.9250   28.2530 N.ar   39  HIS39      -0.2212
     23  N         39.3700  114.1290   33.7650 N.3    41  PHE41      -0.1241
     24  CA        38.7090  112.8690   34.0920 C.3    41  PHE41       0.1605
     25  C         37.7120  113.1500   35.1970 C.2    41  PHE41       0.2264
     26  O         37.8360  114.1400   35.9080 O.2    41  PHE41      -0.2867
     27  CB        39.6990  111.8280   34.6400 C.3    41  PHE41       0.0534
     28  CG        40.8220  111.4730   33.7000 C.ar   41  PHE41      -0.0203
     29  CD1       41.8390  112.3840   33.4250 C.ar   41  PHE41      -0.0042
     30  CD2       40.8650  110.2170   33.0940 C.ar   41  PHE41      -0.0042
     31  CE1       42.8820  112.0530   32.5630 C.ar   41  PHE41      -0.0003
     32  CE2       41.9040  109.8730   32.2300 C.ar   41  PHE41      -0.0003
     33  CZ        42.9150  110.7950   31.9620 C.ar   41  PHE41      -0.0000
     34  N         37.5150  109.3400   31.3170 N.3    51  LEU51      -0.1245
     35  CA        38.0990  110.4180   30.5290 C.3    51  LEU51       0.1561
     36  C         36.9680  111.2320   29.9290 C.2    51  LEU51       0.2260
     37  O         36.1280  110.6960   29.2020 O.2    51  LEU51      -0.2867
     38  CB        38.9490  109.8140   29.4190 C.3    51  LEU51       0.0270
     39  CG        39.6400  110.6890   28.3860 C.3    51  LEU51       0.0019
     40  CD1       40.5880  111.6540   29.0720 C.3    51  LEU51       0.0001
     41  CD2       40.3940  109.7820   27.4110 C.3    51  LEU51       0.0001
     42  N         40.1480  115.5940   26.6140 N.3    54  TYR54      -0.1227
     43  CA        41.5720  115.4260   26.3070 C.3    54  TYR54       0.1736
     44  C         42.1050  116.5200   25.3930 C.2    54  TYR54       0.2595
     45  O         41.3790  117.0790   24.5790 O.2    54  TYR54      -0.2718
     46  CB        41.8450  114.0660   25.6460 C.3    54  TYR54       0.0548
     47  CG        41.2190  113.8970   24.2790 C.ar   54  TYR54      -0.0200
     48  CD1       39.8570  113.6300   24.1420 C.ar   54  TYR54      -0.0009
     49  CD2       41.9940  113.9810   23.1200 C.ar   54  TYR54      -0.0009
     50  CE1       39.2810  113.4440   22.8920 C.ar   54  TYR54       0.0417
     51  CE2       41.4260  113.7970   21.8600 C.ar   54  TYR54       0.0417
     52  CZ        40.0680  113.5250   21.7560 C.ar   54  TYR54       0.1957
     53  OH        39.4920  113.3110   20.5220 O.3    54  TYR54      -0.2866
     54  N         43.3900  116.8090   25.5390 N.am   55  LYS55      -0.1980
     55  CA        44.0560  117.8190   24.7280 C.3    55  LYS55       0.1596
     56  C         43.4960  119.2080   24.9890 C.2    55  LYS55       0.2287
     57  O         43.3450  120.0160   24.0670 O.2    55  LYS55      -0.2864
     58  CB        43.9130  117.4740   23.2480 C.3    55  LYS55       0.0298
     59  CG        44.6550  116.2250   22.8230 C.3    55  LYS55       0.0038
     60  CD        46.1390  116.4660   22.8040 C.3    55  LYS55       0.0206
     61  CE        46.7470  115.8510   21.5650 C.3    55  LYS55       0.1093
     62  NZ        46.5580  114.3820   21.5600 N.3    55  LYS55      -0.1314
     63  N         35.7290  113.8920   24.6210 N.3    60  PHE60      -0.1241
     64  CA        35.7680  112.4750   24.2790 C.3    60  PHE60       0.1605
     65  C         34.4040  111.9820   23.7820 C.2    60  PHE60       0.2264
     66  O         33.3940  112.6840   23.9050 O.2    60  PHE60      -0.2867
     67  CB        36.2320  111.6660   25.5000 C.3    60  PHE60       0.0534
     68  CG        36.7020  110.2720   25.1770 C.ar   60  PHE60      -0.0203
     69  CD1       37.4030  110.0100   24.0100 C.ar   60  PHE60      -0.0042
     70  CD2       36.4670  109.2300   26.0540 C.ar   60  PHE60      -0.0042
     71  CE1       37.8630  108.7330   23.7270 C.ar   60  PHE60      -0.0003
     72  CE2       36.9240  107.9520   25.7790 C.ar   60  PHE60      -0.0003
     73  CZ        37.6200  107.7050   24.6110 C.ar   60  PHE60      -0.0000
     74  N         44.9460  116.2330   34.5290 N.3    94  PHE94      -0.1241
     75  CA        46.0540  115.2940   34.4210 C.3    94  PHE94       0.1605
     76  C         46.8180  115.6160   33.1500 C.2    94  PHE94       0.2264
     77  O         46.2190  115.9200   32.1200 O.2    94  PHE94      -0.2867
     78  CB        45.4360  113.8850   34.3800 C.3    94  PHE94       0.0534
     79  CG        46.3300  112.8080   33.8390 C.ar   94  PHE94      -0.0203
     80  CD1       47.4760  112.4140   34.5200 C.ar   94  PHE94      -0.0042
     81  CD2       45.9650  112.1170   32.6860 C.ar   94  PHE94      -0.0042
     82  CE1       48.2450  111.3310   34.0590 C.ar   94  PHE94      -0.0003
     83  CE2       46.7130  111.0400   32.2130 C.ar   94  PHE94      -0.0003
     84  CZ        47.8570  110.6430   32.9010 C.ar   94  PHE94      -0.0000
     85  N         50.0810  114.5930   30.3500 N.3    96  THR96      -0.1203
     86  CA        50.9060  113.5070   29.8390 C.3    96  THR96       0.1994
     87  C         51.9590  114.0730   28.8900 C.2    96  THR96       0.2618
     88  O         52.5120  113.3570   28.0480 O.2    96  THR96      -0.2717
     89  CB        50.0440  112.4380   29.1040 C.3    96  THR96       0.1784
     90  OG1       49.3220  113.0450   28.0290 O.3    96  THR96      -0.2211
     91  CG2       49.0590  111.8040   30.0630 C.3    96  THR96       0.0376
     92  N         52.2390  115.3670   29.0450 N.am   97  THR97      -0.1952
     93  CA        53.2290  116.0520   28.2130 C.3    97  THR97       0.1897
     94  C         54.6470  115.6540   28.6350 C.2    97  THR97       0.2313
     95  O         55.5130  115.3860   27.7940 O.2    97  THR97      -0.2863
     96  CB        53.1020  117.5860   28.3480 C.3    97  THR97       0.1794
     97  OG1       51.7980  117.9990   27.9400 O.3    97  THR97      -0.2208
     98  CG2       54.1240  118.2770   27.4870 C.3    97  THR97       0.0378
     99  N         54.0670  111.3850   34.3010 N.3   101  TYR101     -0.1241
    100  CA        52.7430  111.9990   34.1720 C.3   101  TYR101      0.1605
    101  C         52.2060  112.3290   35.5630 C.2   101  TYR101      0.2264
    102  O         52.2190  111.4780   36.4480 O.2   101  TYR101     -0.2867
    103  CB        51.7790  111.0420   33.4560 C.3   101  TYR101      0.0534
    104  CG        52.2310  110.5670   32.0840 C.ar  101  TYR101     -0.0201
    105  CD1       51.7060  109.3920   31.5290 C.ar  101  TYR101     -0.0009
    106  CD2       53.1820  111.2740   31.3450 C.ar  101  TYR101     -0.0009
    107  CE1       52.1190  108.9280   30.2740 C.ar  101  TYR101      0.0417
    108  CE2       53.6040  110.8170   30.0870 C.ar  101  TYR101      0.0417
    109  CZ        53.0680  109.6440   29.5610 C.ar  101  TYR101      0.1957
    110  OH        53.4800  109.1880   28.3270 O.3   101  TYR101     -0.2866
@<TRIPOS>BOND
     1    53    52    1
     2    12    11    1
     3    62    61    1
     4    61    60    1
     5    52    51   ar
     6    52    50   ar
     7    51    49   ar
     8    11    10   ar
     9    11     9   ar
    10    60    59    1
    11    59    58    1
    12    50    48   ar
    13    49    47   ar
    14    10     8   ar
    15     9     7   ar
    16    58    55    1
    17    71    69   ar
    18    71    73   ar
    19    65    66    2
    20    65    64    1
    21    69    68   ar
    22    57    56    2
    23    48    47   ar
    24    64    63    1
    25    64    67    1
    26    47    46    1
    27     8     6   ar
    28     7     6   ar
    29    45    44    2
    30    73    72   ar
    31    55    56    1
    32    55    54    1
    33    68    67    1
    34    68    70   ar
    35     6     5    1
    36    44    54   am
    37    44    43    1
    38    46    43    1
    39    72    70   ar
    40     1     2    1
    41    43    42    1
    42     5     2    1
    43     2     3    1
    44    21    19   ar
    45    21    22   ar
    46    41    39    1
    47    98    96    1
    48    19    18   ar
    49    95    94    2
    50    97    96    1
    51    90    89    1
    52    88    87    2
    53     3     4    2
    54    93    96    1
    55    93    94    1
    56    93    92    1
    57    22    20   ar
    58   110   109    1
    59    39    40    1
    60    39    38    1
    61    87    92   am
    62    87    86    1
    63    18    20   ar
    64    18    17    1
    65    89    86    1
    66    89    91    1
    67    37    36    2
    68    38    35    1
    69   109   108   ar
    70   109   107   ar
    71    17    14    1
    72    86    85    1
    73    36    35    1
    74   108   106   ar
    75    14    13    1
    76    14    15    1
    77   107   105   ar
    78    35    34    1
    79   106   104   ar
    80    15    16    2
    81   105   104   ar
    82    33    32   ar
    83    33    31   ar
    84   104   103    1
    85    77    76    2
    86    83    81   ar
    87    83    84   ar
    88    32    30   ar
    89    31    29   ar
    90    81    79   ar
    91    84    82   ar
    92    30    28   ar
    93    76    75    1
    94    29    28   ar
    95   103   100    1
    96    28    27    1
    97    23    24    1
    98    79    78    1
    99    79    80   ar
   100    82    80   ar
   101    24    27    1
   102    24    25    1
   103   100    99    1
   104   100   101    1
   105    78    75    1
   106    75    74    1
   107    25    26    2
   108   101   102    2
