@<TRIPOS>MOLECULE
tmp/1namA00.pdb
 96 95 0 0 0
SMALL
GASTEIGER

@<TRIPOS>ATOM
      1  N         -7.2430   15.9110   16.4660 N.3    54  LYS54      -0.1231
      2  CA        -8.5660   16.0070   15.8770 C.3    54  LYS54       0.1693
      3  C         -8.8750   14.7110   15.1150 C.2    54  LYS54       0.2592
      4  O         -8.0750   14.2630   14.2750 O.2    54  LYS54      -0.2718
      5  CB        -8.6500   17.2140   14.9570 C.3    54  LYS54       0.0285
      6  CG        -9.9820   17.8950   15.0000 C.3    54  LYS54       0.0035
      7  CD        -9.8730   19.3560   14.5970 C.3    54  LYS54       0.0206
      8  CE        -9.5400   20.2410   15.7870 C.3    54  LYS54       0.1093
      9  NZ        -9.3590   21.6560   15.3590 N.3    54  LYS54      -0.1314
     10  N        -10.0250   14.1040   15.4240 N.am   55  LYS55      -0.1966
     11  CA       -10.3890   12.7990   14.8580 C.3    55  LYS55       0.1728
     12  C        -11.3390   12.8790   13.6470 C.2    55  LYS55       0.2616
     13  O        -12.2770   12.0990   13.5410 O.2    55  LYS55      -0.2715
     14  CB       -10.9710   11.8650   15.9400 C.3    55  LYS55       0.0311
     15  CG       -10.6240   12.2290   17.4030 C.3    55  LYS55       0.0038
     16  CD        -9.3190   11.5520   17.9120 C.3    55  LYS55       0.0206
     17  CE        -9.2880   11.4130   19.4600 C.3    55  LYS55       0.1093
     18  NZ        -8.4620   12.4480   20.1710 N.3    55  LYS55      -0.1314
     19  N        -11.0810   13.8120   12.7340 N.am   56  GLU56      -0.1963
     20  CA       -11.8520   13.9180   11.4980 C.3    56  GLU56       0.1733
     21  C        -11.0070   14.5380   10.3780 C.2    56  GLU56       0.2616
     22  O        -10.3030   15.5190   10.6080 O.2    56  GLU56      -0.2715
     23  CB       -13.1050   14.7610   11.7310 C.3    56  GLU56       0.0429
     24  CG       -14.3480   14.2130   11.0530 C.3    56  GLU56       0.1163
     25  CD       -15.3510   15.3010   10.6720 C.2    56  GLU56       0.3649
     26  OE1      -16.4410   14.9510   10.1470 O.co2  56  GLU56      -0.2457
     27  OE2      -15.0580   16.5070   10.8930 O.co2  56  GLU56      -0.2457
     28  N        -11.0750   13.9700    9.1740 N.am   57  ASN57      -0.1972
     29  CA       -10.4030   14.5400    7.9980 C.3    57  ASN57       0.1688
     30  C        -10.8250   15.9740    7.7410 C.2    57  ASN57       0.2292
     31  O        -11.9910   16.2310    7.4380 O.2    57  ASN57      -0.2864
     32  CB       -10.7360   13.7540    6.7270 C.3    57  ASN57       0.1181
     33  CG       -10.0170   12.4300    6.6470 C.2    57  ASN57       0.2629
     34  OD1       -8.9820   12.2280    7.2850 O.2    57  ASN57      -0.2716
     35  ND2      -10.5530   11.5220    5.8270 N.am   57  ASN57      -0.0877
     36  N         -6.9690   13.2830    3.5980 N.3    66  ASN66      -0.1225
     37  CA        -7.1850   11.9110    3.9870 C.3    66  ASN66       0.1785
     38  C         -6.1110   11.6300    4.9950 C.2    66  ASN66       0.2597
     39  O         -4.9830   11.3240    4.6280 O.2    66  ASN66      -0.2718
     40  CB        -7.0590   10.9670    2.7890 C.3    66  ASN66       0.1169
     41  CG        -7.0650    9.4880    3.1920 C.2    66  ASN66       0.2627
     42  OD1       -7.3750    9.1330    4.3420 O.2    66  ASN66      -0.2716
     43  ND2       -6.7140    8.6190    2.2460 N.am   66  ASN66      -0.0877
     44  N         -6.4720   11.7460    6.2690 N.am   67  PHE67      -0.1962
     45  CA        -5.5120   11.6730    7.3590 C.3    67  PHE67       0.1771
     46  C         -5.4540   10.2900    7.9470 C.2    67  PHE67       0.2619
     47  O         -6.4490    9.8020    8.4520 O.2    67  PHE67      -0.2715
     48  CB        -5.9210   12.6310    8.4680 C.3    67  PHE67       0.0574
     49  CG        -5.0000   12.6050    9.6410 C.ar   67  PHE67      -0.0200
     50  CD1       -3.6740   12.2370    9.4800 C.ar   67  PHE67      -0.0042
     51  CD2       -5.4450   12.9610   10.8980 C.ar   67  PHE67      -0.0042
     52  CE1       -2.8110   12.2180   10.5410 C.ar   67  PHE67      -0.0003
     53  CE2       -4.5770   12.9430   11.9690 C.ar   67  PHE67      -0.0003
     54  CZ        -3.2560   12.5600   11.7830 C.ar   67  PHE67      -0.0000
     55  N         -4.2900    9.6650    7.9290 N.am   68  GLN68      -0.1963
     56  CA        -4.2070    8.2870    8.3780 C.3    68  GLN68       0.1733
     57  C         -3.0940    8.0780    9.3890 C.2    68  GLN68       0.2616
     58  O         -2.0250    7.5320    9.0850 O.2    68  GLN68      -0.2715
     59  CB        -4.1070    7.3290    7.1830 C.3    68  GLN68       0.0408
     60  CG        -5.3510    7.3920    6.2840 C.3    68  GLN68       0.0908
     61  CD        -5.5840    6.1420    5.4510 C.2    68  GLN68       0.2608
     62  OE1       -5.0320    5.0770    5.7370 O.2    68  GLN68      -0.2717
     63  NE2       -6.4150    6.2670    4.4190 N.am   68  GLN68      -0.0878
     64  N         -3.3790    8.5060   10.6130 N.am   69  LYS69      -0.1964
     65  CA        -2.4300    8.4220   11.7240 C.3    69  LYS69       0.1713
     66  C         -1.5230    7.1970   11.6880 C.2    69  LYS69       0.2458
     67  O         -0.3140    7.3360   11.7160 O.2    69  LYS69      -0.2730
     68  CB        -3.1730    8.4630   13.0640 C.3    69  LYS69       0.0311
     69  CG        -2.5060    9.2730   14.1350 C.3    69  LYS69       0.0038
     70  CD        -3.3250   10.5140   14.4380 C.3    69  LYS69       0.0206
     71  CE        -2.9000   11.1610   15.7470 C.3    69  LYS69       0.1093
     72  NZ        -2.1140   10.2180   16.5660 N.3    69  LYS69      -0.1314
     73  N         -2.0830    5.9940   11.6280 N.am   70  PRO70      -0.2716
     74  CA        -1.2620    4.8060   11.8540 C.3    70  PRO70       0.1536
     75  C         -0.2240    4.7360   10.7630 C.2    70  PRO70       0.2598
     76  O          0.9160    4.3720   11.0400 O.2    70  PRO70      -0.2715
     77  CB        -2.2590    3.6580   11.7190 C.3    70  PRO70       0.0310
     78  CG        -3.5940    4.2840   11.9100 C.3    70  PRO70       0.0237
     79  CD        -3.4790    5.6430   11.3050 C.3    70  PRO70       0.0939
     80  N         -0.6110    5.1220    9.5470 N.am   71  LYS71      -0.1978
     81  CA         0.2680    5.0340    8.3870 C.3    71  LYS71       0.1596
     82  C          1.1850    6.2410    8.2530 C.2    71  LYS71       0.2287
     83  O          1.8730    6.3700    7.2440 O.2    71  LYS71      -0.2864
     84  CB        -0.5480    4.8900    7.1020 C.3    71  LYS71       0.0298
     85  CG        -1.5390    3.7230    7.0960 C.3    71  LYS71       0.0038
     86  CD        -1.5110    2.9460    5.7920 C.3    71  LYS71       0.0206
     87  CE        -2.5050    3.5190    4.8040 C.3    71  LYS71       0.1093
     88  NZ        -3.7410    2.6740    4.7200 N.3    71  LYS71      -0.1314
     89  N         -6.5240   15.6680   -1.2220 N.3    77  ILE77      -0.1245
     90  CA        -7.4190   15.3700   -2.3280 C.3    77  ILE77       0.1561
     91  C         -8.0150   16.6530   -2.8890 C.2    77  ILE77       0.2260
     92  O         -8.5720   17.4750   -2.1520 O.2    77  ILE77      -0.2867
     93  CB        -8.5270   14.3810   -1.8930 C.3    77  ILE77       0.0252
     94  CG1       -7.8990   13.0930   -1.3490 C.3    77  ILE77       0.0019
     95  CG2       -9.4440   14.0510   -3.0660 C.3    77  ILE77       0.0019
     96  CD1       -8.8210   12.2860   -0.4740 C.3    77  ILE77       0.0001
@<TRIPOS>BOND
     1    95    93    1
     2    91    90    1
     3    91    92    2
     4    90    93    1
     5    90    89    1
     6    93    94    1
     7    94    96    1
     8    43    41   am
     9    40    41    1
    10    40    37    1
    11    41    42    2
    12    36    37    1
    13    37    38    1
    14    63    61   am
    15    39    38    2
    16    88    87    1
    17    87    86    1
    18    38    44   am
    19    61    62    2
    20    61    60    1
    21    86    85    1
    22    35    33   am
    23    44    45    1
    24    60    59    1
    25    33    32    1
    26    33    34    2
    27    32    29    1
    28    85    84    1
    29    84    81    1
    30    59    56    1
    31    83    82    2
    32    45    46    1
    33    45    48    1
    34    31    30    2
    35    30    29    1
    36    55    46   am
    37    55    56    1
    38    46    47    2
    39    29    28    1
    40    82    81    1
    41    56    57    1
    42    81    80    1
    43    48    49    1
    44    58    57    2
    45    28    21   am
    46    57    64   am
    47    50    49   ar
    48    50    52   ar
    49    80    75   am
    50    49    51   ar
    51    26    25   ar
    52    21    22    2
    53    21    20    1
    54    52    54   ar
    55    64    65    1
    56    25    27   ar
    57    25    24    1
    58    75    76    2
    59    75    74    1
    60    51    53   ar
    61    24    23    1
    62    79    73    1
    63    79    78    1
    64    20    23    1
    65    20    19    1
    66    73    66   am
    67    73    74    1
    68    66    67    2
    69    66    65    1
    70    77    74    1
    71    77    78    1
    72    65    68    1
    73    54    53   ar
    74    19    12   am
    75    68    69    1
    76    13    12    2
    77    12    11    1
    78    69    70    1
    79     4     3    2
    80    70    71    1
    81     7     6    1
    82     7     8    1
    83    11    10    1
    84    11    14    1
    85     5     6    1
    86     5     2    1
    87     3    10   am
    88     3     2    1
    89     9     8    1
    90    71    72    1
    91     2     1    1
    92    14    15    1
    93    15    16    1
    94    16    17    1
    95    17    18    1
