@<TRIPOS>MOLECULE
tmp/1naqA00.pdb
 82 81 0 0 0
SMALL
GASTEIGER

@<TRIPOS>ATOM
      1  N         31.7540   -3.7380   31.2170 N.3    10  CYS10      -0.1221
      2  CA        31.0120   -4.8450   30.6190 C.3    10  CYS10       0.1808
      3  C         31.5990   -5.1080   29.2410 C.2    10  CYS10       0.2602
      4  O         32.1190   -4.2180   28.5890 O.2    10  CYS10      -0.2717
      5  CB        29.5100   -4.5790   30.6450 C.3    10  CYS10       0.0970
      6  SG        28.6320   -6.1630   30.5620 S.3    10  CYS10      -0.0800
      7  N         31.6280   -6.3520   28.8120 N.am   11  THR11      -0.1939
      8  CA        32.1860   -6.6690   27.5200 C.3    11  THR11       0.2028
      9  C         31.0970   -7.0030   26.5310 C.2    11  THR11       0.2642
     10  O         30.1240   -7.6950   26.9090 O.2    11  THR11      -0.2714
     11  CB        33.1000   -7.9090   27.6700 C.3    11  THR11       0.1808
     12  OG1       34.1970   -7.5950   28.5260 O.3    11  THR11      -0.2208
     13  CG2       33.7030   -8.3270   26.3170 C.3    11  THR11       0.0379
     14  N         31.2610   -6.5470   25.2730 N.am   12  ALA12      -0.1963
     15  CA        30.3240   -6.7610   24.1340 C.3    12  ALA12       0.1713
     16  C         31.1150   -7.2590   22.8920 C.2    12  ALA12       0.2458
     17  O         32.3200   -7.0040   22.7960 O.2    12  ALA12      -0.2730
     18  CB        29.5300   -5.4970   23.8000 C.3    12  ALA12       0.0333
     19  N         30.5080   -8.0270   21.9970 N.am   13  PRO13      -0.2727
     20  CA        31.2910   -8.6010   20.8880 C.3    13  PRO13       0.1402
     21  C         31.6350   -7.6170   19.7510 C.2    13  PRO13       0.2269
     22  O         32.6610   -7.8090   19.0310 O.2    13  PRO13      -0.2865
     23  CB        30.4120   -9.7280   20.3360 C.3    13  PRO13       0.0296
     24  CG        29.0570   -9.6240   21.0390 C.3    13  PRO13       0.0237
     25  CD        29.0790   -8.4320   22.0000 C.3    13  PRO13       0.0939
     26  N         26.1140   -4.3350   18.7740 N.3    17  THR17      -0.1218
     27  CA        25.6340   -4.8800   20.0560 C.3    17  THR17       0.1862
     28  C         25.8320   -3.8870   21.2120 C.2    17  THR17       0.2287
     29  O         24.8910   -3.5580   21.9440 O.2    17  THR17      -0.2866
     30  CB        26.3360   -6.2070   20.3520 C.3    17  THR17       0.1770
     31  OG1       25.9710   -7.1550   19.3310 O.3    17  THR17      -0.2211
     32  CG2       25.7820   -6.8310   21.6110 C.3    17  THR17       0.0375
     33  N         22.9420   -1.8070   23.3480 N.3    21  LEU21      -0.1245
     34  CA        22.9310   -2.0450   24.7520 C.3    21  LEU21       0.1561
     35  C         23.0340   -0.7450   25.5430 C.2    21  LEU21       0.2260
     36  O         22.1920   -0.4710   26.3880 O.2    21  LEU21      -0.2867
     37  CB        24.0820   -2.9970   25.0960 C.3    21  LEU21       0.0270
     38  CG        24.0370   -3.3140   26.5700 C.3    21  LEU21       0.0019
     39  CD1       22.6280   -3.7560   26.9780 C.3    21  LEU21       0.0001
     40  CD2       25.0920   -4.3560   26.9140 C.3    21  LEU21       0.0001
     41  N         21.8810   -5.6820   32.4860 N.3    74  LEU74      -0.1245
     42  CA        22.9370   -6.1830   31.5740 C.3    74  LEU74       0.1561
     43  C         22.9460   -7.6990   31.5830 C.2    74  LEU74       0.2260
     44  O         23.0760   -8.3500   30.5330 O.2    74  LEU74      -0.2867
     45  CB        24.3500   -5.6260   31.9060 C.3    74  LEU74       0.0270
     46  CG        24.4910   -4.0760   31.7920 C.3    74  LEU74       0.0019
     47  CD1       25.6980   -3.5370   32.6070 C.3    74  LEU74       0.0001
     48  CD2       24.6380   -3.6940   30.3160 C.3    74  LEU74       0.0001
     49  N         20.0610   -9.0910   29.4810 N.3    77  HIS77      -0.1226
     50  CA        20.2780   -8.9600   28.0510 C.3    77  HIS77       0.1752
     51  C         21.3010   -9.9580   27.4660 C.2    77  HIS77       0.2596
     52  O         21.2680  -10.2380   26.2750 O.2    77  HIS77      -0.2718
     53  CB        20.6090   -7.4800   27.7270 C.3    77  HIS77       0.0759
     54  CG        19.3950   -6.6170   27.5590 C.ar   77  HIS77       0.0818
     55  ND1       18.9400   -5.7630   28.5450 N.ar   77  HIS77      -0.2268
     56  CD2       18.5630   -6.4520   26.5020 C.ar   77  HIS77       0.1154
     57  CE1       17.8650   -5.1250   28.1110 C.ar   77  HIS77       0.1986
     58  NE2       17.6260   -5.5120   26.8680 N.ar   77  HIS77      -0.2212
     59  N         22.1520  -10.5520   28.3000 N.am   78  HIS78      -0.1962
     60  CA        23.2510  -11.3800   27.8070 C.3    78  HIS78       0.1772
     61  C         22.7010  -12.7120   27.3160 C.2    78  HIS78       0.2462
     62  O         21.7990  -13.2910   27.9240 O.2    78  HIS78      -0.2730
     63  CB        24.3180  -11.5980   28.8860 C.3    78  HIS78       0.0785
     64  CG        25.5220  -12.3410   28.4010 C.ar   78  HIS78       0.0821
     65  ND1       26.6620  -11.7110   27.9470 N.ar   78  HIS78      -0.2267
     66  CD2       25.7480  -13.6650   28.2720 C.ar   78  HIS78       0.1154
     67  CE1       27.5500  -12.6180   27.5910 C.ar   78  HIS78       0.1986
     68  NE2       27.0190  -13.8170   27.7830 N.ar   78  HIS78      -0.2212
     69  N         23.2300  -13.2180   26.2180 N.am   79  PRO79      -0.2727
     70  CA        22.6080  -14.3740   25.5720 C.3    79  PRO79       0.1402
     71  C         22.7030  -15.6510   26.4110 C.2    79  PRO79       0.2269
     72  O         21.9620  -16.6080   26.1490 O.2    79  PRO79      -0.2865
     73  CB        23.4310  -14.5390   24.2730 C.3    79  PRO79       0.0296
     74  CG        24.2710  -13.3310   24.1430 C.3    79  PRO79       0.0237
     75  CD        24.4390  -12.7620   25.4950 C.3    79  PRO79       0.0939
     76  N         27.3570  -12.1670   31.6960 N.3    83  PRO83      -0.2116
     77  CA        28.1770  -11.0430   31.1470 C.3    83  PRO83       0.1372
     78  C         29.4800  -10.8990   31.9040 C.2    83  PRO83       0.2244
     79  O         29.5780  -11.2340   33.1220 O.2    83  PRO83      -0.2868
     80  CB        27.2790   -9.8040   31.3790 C.3    83  PRO83       0.0268
     81  CG        26.4860  -10.1410   32.5680 C.3    83  PRO83       0.0207
     82  CD        26.2460  -11.6430   32.5120 C.3    83  PRO83       0.0892
@<TRIPOS>BOND
     1    26    27    1
     2    22    21    2
     3    31    30    1
     4    21    20    1
     5    27    30    1
     6    27    28    1
     7    23    20    1
     8    23    24    1
     9    30    32    1
    10    20    19    1
    11    24    25    1
    12    28    29    2
    13    19    25    1
    14    19    16   am
    15    17    16    2
    16    16    15    1
    17    33    34    1
    18    18    15    1
    19    15    14    1
    20    74    73    1
    21    74    75    1
    22    73    70    1
    23    34    37    1
    24    34    35    1
    25    37    38    1
    26    14     9   am
    27    75    69    1
    28    35    36    2
    29    70    69    1
    30    70    71    1
    31    72    71    2
    32    69    61   am
    33    52    51    2
    34    13    11    1
    35    56    58   ar
    36    56    54   ar
    37     9    10    2
    38     9     8    1
    39    38    40    1
    40    38    39    1
    41    58    57   ar
    42    61    60    1
    43    61    62    2
    44    51    50    1
    45    51    59   am
    46     8    11    1
    47     8     7    1
    48    54    53    1
    49    54    55   ar
    50    67    68   ar
    51    67    65   ar
    52    11    12    1
    53    53    50    1
    54    68    66   ar
    55    60    59    1
    56    60    63    1
    57    65    64   ar
    58    50    49    1
    59    57    55   ar
    60    66    64   ar
    61    64    63    1
    62     4     3    2
    63     7     3   am
    64     3     2    1
    65    48    46    1
    66    44    43    2
    67     6     5    1
    68     2     5    1
    69     2     1    1
    70    77    80    1
    71    77    76    1
    72    77    78    1
    73    80    81    1
    74    42    43    1
    75    42    45    1
    76    42    41    1
    77    76    82    1
    78    46    45    1
    79    46    47    1
    80    78    79    2
    81    82    81    1
