@<TRIPOS>MOLECULE
tmp/1navA00.pdb
 207 195 0 0 0
SMALL
GASTEIGER

@<TRIPOS>ATOM
      1  N         55.9840   23.1160   14.1260 N.3    60  PHE60      -0.1241
      2  CA        54.9970   23.8260   14.9220 C.3    60  PHE60       0.1605
      3  C         53.8300   24.2790   14.0500 C.2    60  PHE60       0.2264
      4  O         52.6660   24.1330   14.4270 O.2    60  PHE60      -0.2867
      5  CB        55.6270   25.0480   15.5920 C.3    60  PHE60       0.0534
      6  CG        54.6590   25.8590   16.4040 C.ar   60  PHE60      -0.0203
      7  CD1       54.2550   25.4320   17.6710 C.ar   60  PHE60      -0.0042
      8  CD2       54.1470   27.0500   15.9050 C.ar   60  PHE60      -0.0042
      9  CE1       53.3480   26.1920   18.4370 C.ar   60  PHE60      -0.0003
     10  CE2       53.2430   27.8190   16.6480 C.ar   60  PHE60      -0.0003
     11  CZ        52.8410   27.3910   17.9210 C.ar   60  PHE60      -0.0000
     12  N         51.4480   21.4080   13.1290 N.3    63  PHE63      -0.1227
     13  CA        50.6170   20.9650   14.2400 C.3    63  PHE63       0.1736
     14  C         49.5340   21.9720   14.6010 C.2    63  PHE63       0.2596
     15  O         48.4270   21.5720   14.9830 O.2    63  PHE63      -0.2718
     16  CB        51.4740   20.6890   15.4840 C.3    63  PHE63       0.0547
     17  CG        52.4900   19.6030   15.2910 C.ar   63  PHE63      -0.0202
     18  CD1       53.8360   19.8350   15.5620 C.ar   63  PHE63      -0.0042
     19  CD2       52.1110   18.3550   14.8290 C.ar   63  PHE63      -0.0042
     20  CE1       54.7930   18.8440   15.3700 C.ar   63  PHE63      -0.0003
     21  CE2       53.0620   17.3500   14.6340 C.ar   63  PHE63      -0.0003
     22  CZ        54.4080   17.5980   14.9060 C.ar   63  PHE63      -0.0000
     23  N         49.8300   23.2690   14.5080 N.am   64  THR64      -0.1953
     24  CA        48.8030   24.2450   14.8710 C.3    64  THR64       0.1897
     25  C         47.7330   24.3110   13.8040 C.2    64  THR64       0.2313
     26  O         46.6090   24.7220   14.0790 O.2    64  THR64      -0.2863
     27  CB        49.3570   25.6670   15.1150 C.3    64  THR64       0.1794
     28  OG1       49.8360   26.2260   13.8860 O.3    64  THR64      -0.2208
     29  CG2       50.4700   25.6310   16.1360 C.3    64  THR64       0.0378
     30  N         46.2970   21.8400   12.5260 N.3    66  ILE66      -0.1231
     31  CA        45.3180   20.7990   12.7970 C.3    66  ILE66       0.1692
     32  C         44.8670   20.7630   14.2590 C.2    66  ILE66       0.2591
     33  O         44.0860   19.8910   14.6490 O.2    66  ILE66      -0.2718
     34  CB        45.8700   19.4050   12.4440 C.3    66  ILE66       0.0266
     35  CG1       47.0100   19.0440   13.3920 C.3    66  ILE66       0.0019
     36  CG2       46.3530   19.3870   11.0100 C.3    66  ILE66       0.0020
     37  CD1       47.5330   17.6380   13.2220 C.3    66  ILE66       0.0001
     38  N         45.3390   21.6990   15.0730 N.am   67  ILE67      -0.1980
     39  CA        44.9530   21.6770   16.4720 C.3    67  ILE67       0.1595
     40  C         43.5650   22.2600   16.7300 C.2    67  ILE67       0.2287
     41  O         42.8720   21.8300   17.6580 O.2    67  ILE67      -0.2864
     42  CB        45.9730   22.4160   17.3660 C.3    67  ILE67       0.0276
     43  CG1       45.7360   22.0370   18.8250 C.3    67  ILE67       0.0022
     44  CG2       45.8110   23.9240   17.2240 C.3    67  ILE67       0.0022
     45  CD1       46.9510   21.5250   19.5010 C.3    67  ILE67       0.0001
     46  N         41.0550   19.5200   16.3920 N.3    70  ALA70      -0.1245
     47  CA        41.2560   18.5940   17.5040 C.3    70  ALA70       0.1562
     48  C         40.6120   19.1310   18.7860 C.2    70  ALA70       0.2260
     49  O         39.9790   18.3830   19.5400 O.2    70  ALA70      -0.2867
     50  CB        42.7380   18.3580   17.7170 C.3    70  ALA70       0.0290
     51  N         36.8350   19.0370   18.5320 N.3    73  ARG73      -0.1245
     52  CA        36.2870   17.7070   18.7730 C.3    73  ARG73       0.1563
     53  C         36.0990   17.4230   20.2620 C.2    73  ARG73       0.2260
     54  O         35.1430   16.7460   20.6430 O.2    73  ARG73      -0.2867
     55  CB        37.1760   16.6350   18.1670 C.3    73  ARG73       0.0307
     56  CG        37.3550   16.7680   16.6830 C.3    73  ARG73       0.0489
     57  CD        37.8070   15.4700   16.0840 C.3    73  ARG73       0.2205
     58  NE        38.4010   15.6810   14.7720 N.pl3  73  ARG73      -0.0865
     59  CZ        39.6930   15.9180   14.5710 C.cat  73  ARG73       0.5346
     60  NH1       40.5330   15.9680   15.6000 N.pl3  73  ARG73       0.1354
     61  NH2       40.1470   16.1050   13.3400 N.pl3  73  ARG73       0.1354
     62  N         44.0230   19.3010   26.7980 N.3   101  MET101     -0.1245
     63  CA        45.2550   18.6440   26.3850 C.3   101  MET101      0.1570
     64  C         45.2510   17.1490   26.7170 C.2   101  MET101      0.2261
     65  O         45.7070   16.3310   25.9110 O.2   101  MET101     -0.2867
     66  CB        46.4710   19.3140   27.0090 C.3   101  MET101      0.0387
     67  CG        47.7840   18.6910   26.5500 C.3   101  MET101      0.0595
     68  SD        47.9330   18.6530   24.7850 S.3   101  MET101     -0.1393
     69  CE        49.5030   17.8490   24.5890 C.3   101  MET101      0.0692
     70  N         43.0140   15.2090   24.2840 N.3   104  MET104     -0.1230
     71  CA        43.6570   15.2290   22.9860 C.3   104  MET104      0.1702
     72  C         44.8430   14.2810   23.0290 C.2   104  MET104      0.2593
     73  O         45.1130   13.5780   22.0620 O.2   104  MET104     -0.2718
     74  CB        44.1290   16.6450   22.6510 C.3   104  MET104      0.0401
     75  CG        43.1270   17.4900   21.8770 C.3   104  MET104      0.0596
     76  SD        43.6090   19.2170   21.7330 S.3   104  MET104     -0.1393
     77  CE        45.2670   19.1380   21.2910 C.3   104  MET104      0.0692
     78  N         45.5390   14.2580   24.1610 N.am  105  SER105     -0.1952
     79  CA        46.6880   13.3940   24.3030 C.3   105  SER105      0.1924
     80  C         46.2560   11.9480   24.3950 C.2   105  SER105      0.2314
     81  O         46.9370   11.0640   23.8820 O.2   105  SER105     -0.2863
     82  CB        47.5010   13.7850   25.5360 C.3   105  SER105      0.2116
     83  OG        48.1560   15.0220   25.3220 O.3   105  SER105     -0.2180
     84  N         43.5600   10.6430   23.0170 N.3   107  ARG107     -0.1231
     85  CA        43.1720   10.2710   21.6640 C.3   107  ARG107      0.1694
     86  C         44.3880   10.0100   20.7920 C.2   107  ARG107      0.2591
     87  O         44.3480    9.1670   19.9000 O.2   107  ARG107     -0.2718
     88  CB        42.2860   11.3620   21.0660 C.3   107  ARG107      0.0321
     89  CG        41.0070   11.5270   21.8570 C.3   107  ARG107      0.0489
     90  CD        40.0850   12.5560   21.2690 C.3   107  ARG107      0.2205
     91  NE        38.6900   12.2410   21.5650 N.pl3 107  ARG107     -0.0865
     92  CZ        37.6530   12.8780   21.0320 C.cat 107  ARG107      0.5346
     93  NH1       37.8570   13.8730   20.1770 N.pl3 107  ARG107      0.1354
     94  NH2       36.4130   12.5120   21.3370 N.pl3 107  ARG107      0.1354
     95  N         45.4760   10.7260   21.0550 N.am  108  ALA108     -0.1980
     96  CA        46.7000   10.5270   20.2930 C.3   108  ALA108      0.1597
     97  C         47.3400    9.2200   20.7400 C.2   108  ALA108      0.2287
     98  O         47.7020    8.3820   19.9240 O.2   108  ALA108     -0.2864
     99  CB        47.6670   11.6850   20.5230 C.3   108  ALA108      0.0319
    100  N         45.8010    6.0640   19.3880 N.3   111  ARG111     -0.1245
    101  CA        46.0070    5.8770   17.9490 C.3   111  ARG111      0.1563
    102  C         47.4770    5.5100   17.7190 C.2   111  ARG111      0.2260
    103  O         47.9720    5.5580   16.5940 O.2   111  ARG111     -0.2867
    104  CB        45.6760    7.1540   17.1500 C.3   111  ARG111      0.0307
    105  CG        44.1970    7.5480   17.0400 C.3   111  ARG111      0.0489
    106  CD        43.3210    6.4390   16.4560 C.3   111  ARG111      0.2205
    107  NE        43.7570    5.9340   15.1490 N.pl3 111  ARG111     -0.0865
    108  CZ        43.5430    6.5420   13.9840 C.cat 111  ARG111      0.5346
    109  NH1       42.8950    7.6970   13.9380 N.pl3 111  ARG111      0.1354
    110  NH2       43.9710    5.9840   12.8590 N.pl3 111  ARG111      0.1354
    111  N         48.8550    9.0650   15.5380 N.3   120  THR120     -0.1203
    112  CA        48.0800    9.6620   14.4930 C.3   120  THR120      0.1994
    113  C         47.2390   10.7660   15.0810 C.2   120  THR120      0.2618
    114  O         46.2490   10.5560   15.7940 O.2   120  THR120     -0.2717
    115  CB        47.2030    8.6510   13.7950 C.3   120  THR120      0.1784
    116  OG1       48.0110    7.6480   13.1620 O.3   120  THR120     -0.2211
    117  CG2       46.3530    9.3340   12.7480 C.3   120  THR120      0.0376
    118  N         47.6390   11.9790   14.7410 N.am  121  LEU121     -0.1965
    119  CA        46.9580   13.1670   15.2180 C.3   121  LEU121      0.1728
    120  C         45.7330   13.4110   14.3490 C.2   121  LEU121      0.2617
    121  O         45.7620   13.1610   13.1410 O.2   121  LEU121     -0.2715
    122  CB        47.8980   14.3830   15.1820 C.3   121  LEU121      0.0311
    123  CG        49.2580   14.1580   15.8450 C.3   121  LEU121      0.0022
    124  CD1       50.0750   15.4300   15.7570 C.3   121  LEU121      0.0001
    125  CD2       49.0130   13.8090   17.3530 C.3   121  LEU121      0.0001
    126  N         44.6580   13.9160   14.9610 N.am  122  SER122     -0.1936
    127  CA        43.4150   14.1740   14.2280 C.3   122  SER122      0.2055
    128  C         42.9880   12.9310   13.4660 C.2   122  SER122      0.2643
    129  O         42.2120   13.0160   12.5190 O.2   122  SER122     -0.2714
    130  CB        43.5950   15.3290   13.2370 C.3   122  SER122      0.2130
    131  OG        43.1630   16.5500   13.8230 O.3   122  SER122     -0.2179
    132  N         43.4990   11.7720   13.8690 N.am  123  GLY123     -0.1954
    133  CA        43.1460   10.5370   13.1810 C.3   123  GLY123      0.1869
    134  C         43.6390   10.4540   11.7290 C.2   123  GLY123      0.2309
    135  O         43.2240    9.5650   10.9730 O.2   123  GLY123     -0.2863
    136  N         57.0440   15.5530   16.8660 N.3   132  LEU132     -0.1245
    137  CA        56.1300   16.1580   17.8180 C.3   132  LEU132      0.1561
    138  C         56.9320   16.8740   18.8940 C.2   132  LEU132      0.2260
    139  O         56.5110   17.9040   19.4080 O.2   132  LEU132     -0.2867
    140  CB        55.2350   15.0800   18.4370 C.3   132  LEU132      0.0270
    141  CG        54.0840   15.5390   19.3310 C.3   132  LEU132      0.0019
    142  CD1       53.2420   16.5470   18.5880 C.3   132  LEU132      0.0001
    143  CD2       53.2370   14.3470   19.7400 C.3   132  LEU132      0.0001
    144  N         58.4520   20.0220   17.3280 N.3   135  GLY135     -0.1210
    145  CA        57.3510   20.8900   16.9540 C.3   135  GLY135      0.1956
    146  C         56.8560   21.7410   18.1100 C.2   135  GLY135      0.2612
    147  O         56.0320   22.6310   17.9090 O.2   135  GLY135     -0.2717
    148  N         57.3390   21.4550   19.3200 N.am  136  GLY136     -0.1942
    149  CA        56.9290   22.2370   20.4700 C.3   136  GLY136      0.2014
    150  C         56.6110   21.4980   21.7610 C.2   136  GLY136      0.2638
    151  O         56.7830   22.0530   22.8440 O.2   136  GLY136     -0.2714
    152  N         56.1490   20.2570   21.6710 N.am  137  LEU137     -0.1977
    153  CA        55.8100   19.5180   22.8770 C.3   137  LEU137      0.1596
    154  C         57.0080   19.1470   23.7450 C.2   137  LEU137      0.2287
    155  O         56.8740   18.9990   24.9620 O.2   137  LEU137     -0.2864
    156  CB        54.9910   18.2750   22.5170 C.3   137  LEU137      0.0297
    157  CG        53.5910   18.6120   21.9970 C.3   137  LEU137      0.0022
    158  CD1       52.7200   17.3680   22.0010 C.3   137  LEU137      0.0001
    159  CD2       52.9690   19.6920   22.8890 C.3   137  LEU137      0.0001
    160  N         53.7730   11.3030   25.7750 N.3   144  ILE144     -0.1245
    161  CA        52.6180   10.7640   25.0560 C.3   144  ILE144      0.1561
    162  C         52.9680    9.4680   24.3310 C.2   144  ILE144      0.2260
    163  O         52.1410    8.5590   24.2350 O.2   144  ILE144     -0.2867
    164  CB        52.0510   11.7780   24.0400 C.3   144  ILE144      0.0252
    165  CG1       51.4960   12.9970   24.7720 C.3   144  ILE144      0.0019
    166  CG2       50.9240   11.1380   23.2270 C.3   144  ILE144      0.0019
    167  CD1       51.1470   14.1380   23.8540 C.3   144  ILE144      0.0001
    168  N         52.2050   20.4240   29.6470 N.3   226  HIS226     -0.1241
    169  CA        51.8830   21.1110   28.4170 C.3   226  HIS226      0.1621
    170  C         51.7310   22.6250   28.6260 C.2   226  HIS226      0.2264
    171  O         52.0620   23.4190   27.7350 O.2   226  HIS226     -0.2867
    172  CB        50.6070   20.5350   27.7980 C.3   226  HIS226      0.0745
    173  CG        50.1780   21.2580   26.5700 C.ar  226  HIS226      0.0817
    174  ND1       49.1930   22.2180   26.5810 N.ar  226  HIS226     -0.2268
    175  CD2       50.6850   21.2530   25.3140 C.ar  226  HIS226      0.1154
    176  CE1       49.1140   22.7790   25.3880 C.ar  226  HIS226      0.1986
    177  NE2       50.0110   22.2110   24.6040 N.ar  226  HIS226     -0.2212
    178  N         56.2630   28.0450   23.9530 N.3   233  MET233     -0.1245
    179  CA        55.8780   28.2080   22.5620 C.3   233  MET233      0.1570
    180  C         55.5350   29.6640   22.2420 C.2   233  MET233      0.2261
    181  O         55.8240   30.1510   21.1560 O.2   233  MET233     -0.2867
    182  CB        54.6890   27.3150   22.2400 C.3   233  MET233      0.0387
    183  CG        55.0250   25.8500   22.1180 C.3   233  MET233      0.0595
    184  SD        53.5130   24.8890   21.9030 S.3   233  MET233     -0.1393
    185  CE        53.6720   23.7410   23.2350 C.3   233  MET233      0.0692
    186  N         43.2070   27.9250   19.9730 N.3   246  PHE246     -0.1241
    187  CA        44.4040   27.4230   20.6120 C.3   246  PHE246      0.1605
    188  C         44.7900   28.3450   21.7570 C.2   246  PHE246      0.2264
    189  O         45.0540   27.8800   22.8670 O.2   246  PHE246     -0.2867
    190  CB        45.5290   27.3300   19.5790 C.3   246  PHE246      0.0534
    191  CG        46.7750   26.6670   20.0840 C.ar  246  PHE246     -0.0203
    192  CD1       46.7030   25.5040   20.8390 C.ar  246  PHE246     -0.0042
    193  CD2       48.0300   27.1680   19.7510 C.ar  246  PHE246     -0.0042
    194  CE1       47.8630   24.8490   21.2510 C.ar  246  PHE246     -0.0003
    195  CE2       49.1930   26.5170   20.1580 C.ar  246  PHE246     -0.0003
    196  CZ        49.1070   25.3580   20.9060 C.ar  246  PHE246     -0.0000
    197  N         44.5110   27.5840   26.0280 N.3   250  PHE250     -0.1241
    198  CA        45.7200   27.3750   26.8060 C.3   250  PHE250      0.1605
    199  C         46.3210   28.5910   27.4650 C.2   250  PHE250      0.2264
    200  O         47.2320   28.4720   28.2840 O.2   250  PHE250     -0.2867
    201  CB        46.7660   26.6780   25.9390 C.3   250  PHE250      0.0534
    202  CG        46.3440   25.3120   25.4970 C.ar  250  PHE250     -0.0203
    203  CD1       46.1190   25.0380   24.1540 C.ar  250  PHE250     -0.0042
    204  CD2       46.1090   24.3150   26.4380 C.ar  250  PHE250     -0.0042
    205  CE1       45.6640   23.7870   23.7500 C.ar  250  PHE250     -0.0003
    206  CE2       45.6540   23.0620   26.0510 C.ar  250  PHE250     -0.0003
    207  CZ        45.4280   22.7950   24.7010 C.ar  250  PHE250     -0.0000
@<TRIPOS>BOND
     1   135   134    2
     2    36    34    1
     3   134   133    1
     4    34    31    1
     5    34    35    1
     6   129   128    2
     7    30    31    1
     8   117   115    1
     9    31    32    1
    10   110   108    1
    11    12    13    1
    12   121   120    2
    13   116   115    1
    14   133   132    1
    15    37    35    1
    16   130   131    1
    17   130   127    1
    18    61    59    1
    19   128   132   am
    20   128   127    1
    21   115   112    1
    22    25    26    2
    23    25    24    1
    24    28    27    1
    25   109   108    1
    26   108   107    2
    27     3     4    2
    28     3     2    1
    29     1     2    1
    30   127   126    1
    31    13    14    1
    32    13    16    1
    33    32    33    2
    34    32    38   am
    35   120   126   am
    36   120   119    1
    37   112   113    1
    38   112   111    1
    39    23    14   am
    40    23    24    1
    41    59    58    2
    42    59    60    1
    43    14    15    2
    44    21    19   ar
    45    21    22   ar
    46   118   113   am
    47   118   119    1
    48    58    57    1
    49    19    17   ar
    50    24    27    1
    51    22    20   ar
    52     2     5    1
    53    38    39    1
    54   113   114    2
    55    27    29    1
    56   107   106    1
    57   122   119    1
    58   122   123    1
    59    17    16    1
    60    17    18   ar
    61    20    18   ar
    62     5     6    1
    63   124   123    1
    64   123   125    1
    65     8     6   ar
    66     8    10   ar
    67    57    56    1
    68    46    47    1
    69     6     7   ar
    70   106   105    1
    71    39    40    1
    72    39    42    1
    73   103   102    2
    74    10    11   ar
    75    56    55    1
    76    40    41    2
    77   136   137    1
    78   145   144    1
    79   145   146    1
    80   105   104    1
    81   104   101    1
    82    44    42    1
    83    42    43    1
    84    47    50    1
    85    47    48    1
    86     7     9   ar
    87   102   101    1
    88   137   140    1
    89   137   138    1
    90   147   146    2
    91    11     9   ar
    92   101   100    1
    93   146   148   am
    94    55    52    1
    95   140   141    1
    96    51    52    1
    97   142   141    1
    98    52    53    1
    99    48    49    2
   100    43    45    1
   101   138   139    2
   102   148   149    1
   103   141   143    1
   104   190   191    1
   105   190   187    1
   106   193   191   ar
   107   193   195   ar
   108    87    86    2
   109    98    97    2
   110   186   187    1
   111   191   192   ar
   112   195   196   ar
   113    93    92    1
   114    53    54    2
   115    96    99    1
   116    96    97    1
   117    96    95    1
   118   149   150    1
   119   187   188    1
   120    86    95   am
   121    86    85    1
   122   192   194   ar
   123   196   194   ar
   124    92    94    1
   125    92    91    2
   126    88    85    1
   127    88    89    1
   128   181   180    2
   129    90    91    1
   130    90    89    1
   131    77    76    1
   132    85    84    1
   133   152   150   am
   134   152   153    1
   135    76    75    1
   136   188   189    2
   137   150   151    2
   138    75    74    1
   139   184   183    1
   140   184   185    1
   141   157   158    1
   142   157   156    1
   143   157   159    1
   144    73    72    2
   145   183   182    1
   146   182   179    1
   147   180   179    1
   148   156   153    1
   149   179   178    1
   150    74    71    1
   151   153   154    1
   152    71    72    1
   153    71    70    1
   154    72    78   am
   155   166   164    1
   156   154   155    2
   157   205   203   ar
   158   205   207   ar
   159   167   165    1
   160    81    80    2
   161   164   165    1
   162   164   161    1
   163   203   202   ar
   164    78    79    1
   165   163   162    2
   166    79    80    1
   167    79    82    1
   168   162   161    1
   169    69    68    1
   170   177   175   ar
   171   177   176   ar
   172   207   206   ar
   173    68    67    1
   174   161   160    1
   175   175   173   ar
   176    83    82    1
   177   176   174   ar
   178   202   201    1
   179   202   204   ar
   180    65    64    2
   181   201   198    1
   182   197   198    1
   183   206   204   ar
   184    63    64    1
   185    63    62    1
   186    63    66    1
   187    67    66    1
   188   173   174   ar
   189   173   172    1
   190   198   199    1
   191   199   200    2
   192   171   170    2
   193   172   169    1
   194   169   170    1
   195   169   168    1
