@<TRIPOS>MOLECULE
tmp/1nb3J00.pdb
 110 106 0 0 0
SMALL
GASTEIGER

@<TRIPOS>ATOM
      1  N         23.5380   66.2450   51.9260 N.3    60  ASN60      -0.1225
      2  CA        24.0640   67.3420   51.1790 C.3    60  ASN60       0.1785
      3  C         23.4200   67.3810   49.8340 C.2    60  ASN60       0.2597
      4  O         23.3750   68.4350   49.2240 O.2    60  ASN60      -0.2718
      5  CB        25.5420   67.1610   50.9850 C.3    60  ASN60       0.1169
      6  CG        26.3400   67.9350   51.9790 C.2    60  ASN60       0.2627
      7  OD1       26.5650   67.4970   53.1000 O.2    60  ASN60      -0.2716
      8  ND2       26.7770   69.1100   51.5780 N.am   60  ASN60      -0.0877
      9  N         22.8910   66.2560   49.3720 N.am   61  PHE61      -0.1962
     10  CA        22.2890   66.2470   48.0620 C.3    61  PHE61       0.1771
     11  C         20.7930   66.2520   48.0310 C.2    61  PHE61       0.2619
     12  O         20.1840   65.7630   47.0960 O.2    61  PHE61      -0.2715
     13  CB        22.8480   65.1150   47.2350 C.3    61  PHE61       0.0574
     14  CG        24.2160   65.3630   46.7600 C.ar   61  PHE61      -0.0200
     15  CD1       25.3040   65.0210   47.5460 C.ar   61  PHE61      -0.0042
     16  CD2       24.4330   65.9590   45.5270 C.ar   61  PHE61      -0.0042
     17  CE1       26.6100   65.2580   47.1080 C.ar   61  PHE61      -0.0003
     18  CE2       25.7370   66.2030   45.0770 C.ar   61  PHE61      -0.0003
     19  CZ        26.8340   65.8510   45.8740 C.ar   61  PHE61      -0.0000
     20  N         20.2270   66.9350   49.0020 N.am   62  ASN62      -0.1972
     21  CA        18.7940   67.0940   49.1610 C.3    62  ASN62       0.1688
     22  C         17.9970   65.8850   49.5720 C.2    62  ASN62       0.2292
     23  O         16.7800   65.9150   49.6400 O.2    62  ASN62      -0.2864
     24  CB        18.1420   67.7760   47.9760 C.3    62  ASN62       0.1181
     25  CG        16.6940   68.1320   48.2570 C.2    62  ASN62       0.2629
     26  OD1       16.3410   68.6420   49.3440 O.2    62  ASN62      -0.2716
     27  ND2       15.8330   67.7980   47.3180 N.am   62  ASN62      -0.0877
     28  N         15.7540   60.5450   46.6850 N.3    70  LEU70      -0.1245
     29  CA        15.6270   60.3020   45.2400 C.3    70  LEU70       0.1561
     30  C         16.9080   59.7040   44.7280 C.2    70  LEU70       0.2260
     31  O         18.0160   60.1120   45.1220 O.2    70  LEU70      -0.2867
     32  CB        15.4030   61.5890   44.4850 C.3    70  LEU70       0.0270
     33  CG        14.7210   61.4090   43.1520 C.3    70  LEU70       0.0019
     34  CD1       13.2850   61.0410   43.4610 C.3    70  LEU70       0.0001
     35  CD2       14.8380   62.7140   42.2960 C.3    70  LEU70       0.0001
     36  N         18.3960   59.8560   41.5970 N.3    72  SER72      -0.1202
     37  CA        19.1620   60.8250   40.7910 C.3    72  SER72       0.2020
     38  C         20.0820   61.5300   41.7230 C.2    72  SER72       0.2618
     39  O         21.2750   61.6450   41.4730 O.2    72  SER72      -0.2717
     40  CB        18.2300   61.8960   40.2360 C.3    72  SER72       0.2103
     41  OG        16.8760   61.4270   40.1560 O.3    72  SER72      -0.2182
     42  N         19.5070   62.0060   42.8230 N.am   73  GLN73      -0.1979
     43  CA        20.2510   62.7250   43.8470 C.3    73  GLN73       0.1601
     44  C         21.2640   61.8370   44.5480 C.2    73  GLN73       0.2287
     45  O         22.4390   62.2100   44.7520 O.2    73  GLN73      -0.2864
     46  CB        19.2810   63.2970   44.8650 C.3    73  GLN73       0.0394
     47  CG        18.0050   63.8620   44.2570 C.3    73  GLN73       0.0908
     48  CD        17.2340   64.7050   45.2440 C.2    73  GLN73       0.2608
     49  OE1       17.7450   65.0670   46.2830 O.2    73  GLN73      -0.2717
     50  NE2       15.9830   64.9990   44.9260 N.am   73  GLN73      -0.0878
     51  N         24.2660   61.4020   42.4100 N.3    76  GLU76      -0.1245
     52  CA        25.1040   62.5690   42.5280 C.3    76  GLU76       0.1567
     53  C         25.9110   62.5260   43.8170 C.2    76  GLU76       0.2260
     54  O         27.1270   62.7600   43.7950 O.2    76  GLU76      -0.2867
     55  CB        24.2500   63.8240   42.4720 C.3    76  GLU76       0.0388
     56  CG        23.5830   64.0470   41.0850 C.3    76  GLU76       0.1160
     57  CD        24.6030   64.2640   39.9400 C.2    76  GLU76       0.3649
     58  OE1       25.8380   64.0870   40.1670 O.co2  76  GLU76      -0.2457
     59  OE2       24.1450   64.5820   38.8040 O.co2  76  GLU76      -0.2457
     60  N         28.7010   59.8630   43.5120 N.3    79  ARG79      -0.1231
     61  CA        29.6600   60.3560   42.5380 C.3    79  ARG79       0.1694
     62  C         30.6080   61.4140   43.1420 C.2    79  ARG79       0.2592
     63  O         31.8280   61.3270   42.9810 O.2    79  ARG79      -0.2718
     64  CB        28.8860   60.9250   41.3540 C.3    79  ARG79       0.0321
     65  CG        29.7470   61.2940   40.1500 C.3    79  ARG79       0.0489
     66  CD        29.2110   62.5000   39.4520 C.3    79  ARG79       0.2205
     67  NE        30.3010   63.3950   39.1080 N.pl3  79  ARG79      -0.0865
     68  CZ        30.2490   64.2990   38.1290 C.cat  79  ARG79       0.5346
     69  NH1       29.1390   64.4220   37.3940 N.pl3  79  ARG79       0.1354
     70  NH2       31.3250   65.0610   37.8710 N.pl3  79  ARG79       0.1354
     71  N         30.0530   62.4060   43.8480 N.am   80  TYR80      -0.1976
     72  CA        30.8930   63.4250   44.4700 C.3    80  TYR80       0.1639
     73  C         31.5650   62.9070   45.7300 C.2    80  TYR80       0.2290
     74  O         32.7090   63.2430   45.9960 O.2    80  TYR80      -0.2864
     75  CB        30.1270   64.7140   44.6840 C.3    80  TYR80       0.0560
     76  CG        29.9340   65.4340   43.3690 C.ar   80  TYR80      -0.0198
     77  CD1       31.0160   65.7240   42.5680 C.ar   80  TYR80      -0.0009
     78  CD2       28.6600   65.7560   42.8990 C.ar   80  TYR80      -0.0009
     79  CE1       30.8390   66.3020   41.3380 C.ar   80  TYR80       0.0417
     80  CE2       28.4730   66.3370   41.6630 C.ar   80  TYR80       0.0417
     81  CZ        29.5660   66.6090   40.8860 C.ar   80  TYR80       0.1957
     82  OH        29.4170   67.1900   39.6410 O.3    80  TYR80      -0.2866
     83  N         29.0190   59.4700   35.9100 N.3   112  ASP112     -0.1225
     84  CA        28.0150   60.4580   35.5730 C.3   112  ASP112      0.1805
     85  C         26.6650   59.8070   35.8570 C.2   112  ASP112      0.2598
     86  O         26.6170   58.5970   36.1160 O.2   112  ASP112     -0.2718
     87  CB        28.1110   60.8280   34.1010 C.3   112  ASP112      0.1424
     88  CG        27.5750   62.2320   33.8130 C.2   112  ASP112      0.3668
     89  OD1       28.3570   63.0510   33.2600 O.co2 112  ASP112     -0.2456
     90  OD2       26.3860   62.5230   34.0980 O.co2 112  ASP112     -0.2456
     91  N         25.5900   60.6000   35.7880 N.am  113  VAL113     -0.1966
     92  CA        24.2550   60.1160   36.0430 C.3   113  VAL113      0.1727
     93  C         23.2760   60.4980   34.9420 C.2   113  VAL113      0.2616
     94  O         22.9610   61.6670   34.7290 O.2   113  VAL113     -0.2715
     95  CB        23.7100   60.5860   37.4460 C.3   113  VAL113      0.0290
     96  CG1       24.6240   61.5420   38.0420 C.3   113  VAL113      0.0023
     97  CG2       22.3130   61.1890   37.3690 C.3   113  VAL113      0.0023
     98  N         22.7390   59.4890   34.2800 N.am  114  ALA114     -0.1963
     99  CA        21.8090   59.7440   33.2100 C.3   114  ALA114      0.1728
    100  C         20.4070   60.0110   33.7320 C.2   114  ALA114      0.2616
    101  O         19.7500   59.0740   34.1770 O.2   114  ALA114     -0.2715
    102  CB        21.7960   58.5660   32.2720 C.3   114  ALA114      0.0334
    103  N         19.9240   61.2520   33.7060 N.am  115  ASN115     -0.1972
    104  CA        18.5290   61.4430   34.1400 C.3   115  ASN115      0.1688
    105  C         17.6710   61.2300   32.8970 C.2   115  ASN115      0.2292
    106  O         18.1180   61.4330   31.7540 O.2   115  ASN115     -0.2864
    107  CB        18.2100   62.8380   34.7100 C.3   115  ASN115      0.1181
    108  CG        19.1580   63.2700   35.8020 C.2   115  ASN115      0.2629
    109  OD1       20.1950   62.6590   36.0010 O.2   115  ASN115     -0.2716
    110  ND2       18.8180   64.3550   36.4920 N.am  115  ASN115     -0.0877
@<TRIPOS>BOND
     1   106   105    2
     2   102    99    1
     3   105   104    1
     4    99   100    1
     5    99    98    1
     6    89    88   ar
     7   103   100   am
     8   103   104    1
     9   100   101    2
    10    88    90   ar
    11    88    87    1
    12    87    84    1
    13   104   107    1
    14    98    93   am
    15   107   108    1
    16    94    93    2
    17    93    92    1
    18    84    85    1
    19    84    83    1
    20    91    85   am
    21    91    92    1
    22   108   109    2
    23   108   110   am
    24    85    86    2
    25    92    95    1
    26    97    95    1
    27    69    68    1
    28    95    96    1
    29    70    68    1
    30    68    67    2
    31    59    57   ar
    32    67    66    1
    33    66    65    1
    34    82    81    1
    35    57    58   ar
    36    57    56    1
    37    65    64    1
    38    41    40    1
    39    40    37    1
    40    37    36    1
    41    37    38    1
    42    81    79   ar
    43    81    80   ar
    44    56    55    1
    45    79    77   ar
    46    64    61    1
    47    39    38    2
    48    80    78   ar
    49    38    42   am
    50    35    33    1
    51    51    52    1
    52    55    52    1
    53    52    53    1
    54    61    62    1
    55    61    60    1
    56    77    76   ar
    57    42    43    1
    58    78    76   ar
    59    63    62    2
    60    62    71   am
    61    33    34    1
    62    33    32    1
    63    76    75    1
    64    54    53    2
    65    43    44    1
    66    43    46    1
    67    71    72    1
    68    47    46    1
    69    47    48    1
    70    72    75    1
    71    72    73    1
    72    32    29    1
    73    44    45    2
    74    30    31    2
    75    30    29    1
    76    50    48   am
    77    18    16   ar
    78    18    19   ar
    79    29    28    1
    80    48    49    2
    81    16    14   ar
    82    73    74    2
    83    19    17   ar
    84    14    13    1
    85    14    15   ar
    86    12    11    2
    87    17    15   ar
    88    13    10    1
    89    27    25   am
    90    24    25    1
    91    24    21    1
    92    11    10    1
    93    11    20   am
    94    10     9    1
    95    25    26    2
    96    20    21    1
    97    21    22    1
    98     4     3    2
    99     9     3   am
   100    22    23    2
   101     3     2    1
   102     5     2    1
   103     5     6    1
   104     2     1    1
   105     8     6   am
   106     6     7    2
