@<TRIPOS>MOLECULE
tmp/1nb3D00.pdb
 114 106 0 0 0
SMALL
GASTEIGER

@<TRIPOS>ATOM
      1  N         25.5410    7.4080  157.4110 N.3    62  ASN62      -0.1240
      2  CA        26.0030    8.7530  157.7620 C.3    62  ASN62       0.1653
      3  C         25.0190    9.8660  158.2100 C.2    62  ASN62       0.2266
      4  O         25.3270   11.0450  158.1360 O.2    62  ASN62      -0.2867
      5  CB        26.9830    9.2990  156.7190 C.3    62  ASN62       0.1155
      6  CG        27.9800   10.2990  157.3240 C.2    62  ASN62       0.2627
      7  OD1       28.8780    9.9110  158.0820 O.2    62  ASN62      -0.2716
      8  ND2       27.8130   11.5740  157.0170 N.am   62  ASN62      -0.0877
      9  N         22.2750   11.7120  161.2640 N.3    64  HIS64      -0.1241
     10  CA        22.2810   12.0230  162.6860 C.3    64  HIS64       0.1621
     11  C         20.9510   12.4970  163.2390 C.2    64  HIS64       0.2264
     12  O         20.9170   13.4340  164.0080 O.2    64  HIS64      -0.2867
     13  CB        23.3490   13.0800  162.9870 C.3    64  HIS64       0.0745
     14  CG        24.7320   12.7060  162.5550 C.ar   64  HIS64       0.0817
     15  ND1       25.0860   12.5790  161.2240 N.ar   64  HIS64      -0.2268
     16  CD2       25.8630   12.4760  163.2690 C.ar   64  HIS64       0.1154
     17  CE1       26.3750   12.2880  161.1430 C.ar   64  HIS64       0.1986
     18  NE2       26.8680   12.2210  162.3710 N.ar   64  HIS64      -0.2212
     19  N         20.8530   16.2020  161.8580 N.3    68  GLY68      -0.1209
     20  CA        21.3640   16.1630  160.5020 C.3    68  GLY68       0.1959
     21  C         21.4130   14.9320  159.6080 C.2    68  GLY68       0.2652
     22  O         21.6260   13.7940  160.0570 O.2    68  GLY68      -0.2714
     23  N         21.2130   15.2000  158.3110 N.am   69  GLY69      -0.1718
     24  CA        21.2580   14.1660  157.2810 C.2    69  GLY69       0.1480
     25  C         21.1960   14.6590  155.8360 C.2    69  GLY69       0.2820
     26  O         21.1510   15.8480  155.5710 O.2    69  GLY69      -0.2669
     27  N         21.2740   13.7460  154.8860 N.am   70  LEU70      -0.1943
     28  CA        21.1670   14.1160  153.4970 C.3    70  LEU70       0.1599
     29  C         20.1950   13.1540  152.8760 C.2    70  LEU70       0.2287
     30  O         20.3020   11.9280  153.0500 O.2    70  LEU70      -0.2864
     31  CB        22.4710   13.9530  152.7680 C.3    70  LEU70       0.0297
     32  CG        22.4850   14.7680  151.4700 C.3    70  LEU70       0.0022
     33  CD1       22.1140   16.2060  151.7110 C.3    70  LEU70       0.0001
     34  CD2       23.8430   14.7130  150.8770 C.3    70  LEU70       0.0001
     35  N         19.9780   11.9080  149.9310 N.3    72  SER72      -0.1202
     36  CA        20.4970   10.8440  149.0800 C.3    72  SER72       0.2020
     37  C         20.9360    9.6710  149.9320 C.2    72  SER72       0.2621
     38  O         20.6300    8.5200  149.5930 O.2    72  SER72      -0.2717
     39  CB        21.6350   11.3370  148.1940 C.3    72  SER72       0.2103
     40  OG        22.7980   11.6110  148.9350 O.3    72  SER72      -0.2182
     41  N         21.6000    9.9700  151.0550 N.am   73  GLN73      -0.1933
     42  CA        22.0900    8.9490  151.9680 C.3    73  GLN73       0.1817
     43  C         20.8700    8.1910  152.5780 C.2    73  GLN73       0.2332
     44  O         20.8710    6.9660  152.5830 O.2    73  GLN73      -0.2860
     45  CB        23.0150    9.5430  153.0520 C.2    73  GLN73       0.0077
     46  CG        24.2840   10.3630  152.5800 C.2    73  GLN73       0.0587
     47  CD        25.0450   11.1730  153.7340 C.2    73  GLN73       0.2841
     48  OE1       24.5150   11.3350  154.8330 O.2    73  GLN73      -0.2667
     49  NE2       26.2790   11.6560  153.4560 N.am   73  GLN73      -0.0837
     50  N         21.5800   10.3890  141.8350 N.3   115  ASN115     -0.1225
     51  CA        22.1600   11.5880  142.3860 C.3   115  ASN115      0.1785
     52  C         22.3380   12.6090  141.2650 C.2   115  ASN115      0.2597
     53  O         22.9230   12.2880  140.2440 O.2   115  ASN115     -0.2718
     54  CB        23.5110   11.2780  143.0240 C.3   115  ASN115      0.1169
     55  CG        23.4090   10.3010  144.1830 C.2   115  ASN115      0.2627
     56  OD1       22.3190    9.8830  144.5780 O.2   115  ASN115     -0.2716
     57  ND2       24.5590    9.9240  144.7300 N.am  115  ASN115     -0.0877
     58  N         21.8160   13.8170  141.4430 N.am  116  ILE116     -0.1980
     59  CA        21.9460   14.8500  140.4290 C.3   116  ILE116      0.1595
     60  C         23.3170   15.4200  140.5840 C.2   116  ILE116      0.2287
     61  O         23.6160   15.9710  141.6310 O.2   116  ILE116     -0.2864
     62  CB        21.0180   16.0150  140.6920 C.3   116  ILE116      0.0276
     63  CG1       19.5580   15.5450  140.6580 C.3   116  ILE116      0.0022
     64  CG2       21.3600   17.1820  139.7460 C.3   116  ILE116      0.0022
     65  CD1       19.0320   15.1700  139.2980 C.3   116  ILE116      0.0001
     66  N         26.6990   17.4980  140.9050 N.3   118  MET118     -0.1245
     67  CA        26.8290   18.7470  141.6540 C.3   118  MET118      0.1570
     68  C         26.5730   20.0830  140.9260 C.2   118  MET118      0.2261
     69  O         27.1130   20.3670  139.8480 O.2   118  MET118     -0.2867
     70  CB        28.1900   18.8120  142.3420 C.3   118  MET118      0.0387
     71  CG        28.1710   18.5380  143.8300 C.3   118  MET118      0.0595
     72  SD        29.4350   19.5270  144.5650 S.3   118  MET118     -0.1393
     73  CE        30.9340   18.9290  143.6800 C.3   118  MET118      0.0692
     74  N         18.8900   20.1660  148.9770 N.3   137  ALA137     -0.1245
     75  CA        19.3060   20.9360  150.1210 C.3   137  ALA137      0.1562
     76  C         19.7350   22.3580  149.7380 C.2   137  ALA137      0.2260
     77  O         20.3370   22.5750  148.6900 O.2   137  ALA137     -0.2867
     78  CB        20.4770   20.2280  150.7490 C.3   137  ALA137      0.0290
     79  N         28.8760   24.2040  149.0110 N.3   161  PRO161     -0.2116
     80  CA        28.6580   23.0480  149.8930 C.3   161  PRO161      0.1372
     81  C         29.1870   23.2570  151.3060 C.2   161  PRO161      0.2244
     82  O         29.3420   22.2960  152.0580 O.2   161  PRO161     -0.2868
     83  CB        29.4580   21.9420  149.2030 C.3   161  PRO161      0.0268
     84  CG        29.3630   22.2930  147.7810 C.3   161  PRO161      0.0207
     85  CD        29.5850   23.7890  147.7910 C.3   161  PRO161      0.0892
     86  N         25.1020   24.7050  153.4140 N.3   164  VAL164     -0.1245
     87  CA        23.7680   24.1710  153.0290 C.3   164  VAL164      0.1561
     88  C         23.1730   23.5720  154.3080 C.2   164  VAL164      0.2260
     89  O         23.7710   22.6600  154.8970 O.2   164  VAL164     -0.2867
     90  CB        23.8810   23.0330  152.0360 C.3   164  VAL164      0.0252
     91  CG1       22.6190   22.9520  151.1920 C.3   164  VAL164      0.0019
     92  CG2       25.0970   23.2250  151.1850 C.3   164  VAL164      0.0019
     93  N         23.4200   21.8620  145.0210 N.3   211  ALA211     -0.1231
     94  CA        24.7230   21.4090  145.4770 C.3   211  ALA211      0.1694
     95  C         24.8010   19.9150  145.6530 C.2   211  ALA211      0.2592
     96  O         25.8310   19.3090  145.3460 O.2   211  ALA211     -0.2718
     97  CB        25.0680   22.0840  146.7770 C.3   211  ALA211      0.0304
     98  N         23.7410   19.3570  146.2440 N.am  212  CYS212     -0.1956
     99  CA        23.6010   17.9160  146.5020 C.3   212  CYS212      0.1843
    100  C         22.1140   17.5030  146.4220 C.2   212  CYS212      0.2625
    101  O         21.4180   17.5510  147.4150 O.2   212  CYS212     -0.2714
    102  CB        24.1740   17.5790  147.9040 C.3   212  CYS212      0.0997
    103  SG        23.2850   18.2910  149.3430 S.3   212  CYS212     -0.0797
    104  N         21.6010   17.1090  145.2720 N.am  213  ALA213     -0.1963
    105  CA        20.1860   16.7670  145.2300 C.3   213  ALA213      0.1728
    106  C         20.0300   15.3670  144.6680 C.2   213  ALA213      0.2616
    107  O         21.0010   14.8030  144.1310 O.2   213  ALA213     -0.2715
    108  CB        19.4440   17.7420  144.3970 C.3   213  ALA213      0.0334
    109  N         18.8280   14.7920  144.7870 N.am  214  SER214     -0.1950
    110  CA        18.6170   13.4480  144.2910 C.3   214  SER214      0.1924
    111  C         17.1780   13.0770  144.3250 C.2   214  SER214      0.2314
    112  O         16.3930   13.7190  144.9900 O.2   214  SER214     -0.2863
    113  CB        19.3550   12.4580  145.1530 C.3   214  SER214      0.2116
    114  OG        18.8350   12.4870  146.4680 O.3   214  SER214     -0.2180
@<TRIPOS>BOND
     1    65    63    1
     2    64    62    1
     3    69    68    2
     4    53    52    2
     5    59    60    1
     6    59    62    1
     7    59    58    1
     8    60    61    2
     9    63    62    1
    10    66    67    1
    11    68    67    1
    12    52    58   am
    13    52    51    1
    14    67    70    1
    15    50    51    1
    16    70    71    1
    17    51    54    1
    18    54    55    1
    19    73    72    1
    20    71    72    1
    21   107   106    2
    22    55    56    2
    23    55    57   am
    24   110   111    1
    25   110   109    1
    26   110   113    1
    27   111   112    2
    28   108   105    1
    29   106   109   am
    30   106   105    1
    31    93    94    1
    32   113   114    1
    33   105   104    1
    34   104   100   am
    35    96    95    2
    36    94    95    1
    37    94    97    1
    38    95    98   am
    39    98    99    1
    40   100    99    1
    41   100   101    2
    42    99   102    1
    43    84    85    1
    44    84    83    1
    45    85    79    1
    46   102   103    1
    47    39    40    1
    48    39    36    1
    49    77    76    2
    50    74    75    1
    51    79    80    1
    52    36    35    1
    53    36    37    1
    54    83    80    1
    55    38    37    2
    56    76    75    1
    57    80    81    1
    58    37    41   am
    59    75    78    1
    60    34    32    1
    61    41    42    1
    62    92    90    1
    63    91    90    1
    64    81    82    2
    65    32    33    1
    66    32    31    1
    67    42    43    1
    68    42    45    1
    69    90    87    1
    70    43    44    2
    71    46    45    2
    72    46    47    1
    73    31    28    1
    74    29    30    2
    75    29    28    1
    76    87    86    1
    77    87    88    1
    78    49    47   am
    79    28    27    1
    80    47    48    2
    81    88    89    2
    82    27    25   am
    83    26    25    2
    84    25    24    1
    85     5     6    1
    86     5     2    1
    87     8     6   am
    88    24    23    2
    89     6     7    2
    90     1     2    1
    91     2     3    1
    92     4     3    2
    93    23    21    1
    94    21    22    2
    95    21    20    1
    96    20    19    1
    97    17    15   ar
    98    17    18   ar
    99    15    14   ar
   100     9    10    1
   101    18    16   ar
   102    14    13    1
   103    14    16   ar
   104    10    13    1
   105    10    11    1
   106    11    12    2
