@<TRIPOS>MOLECULE
tmp/1nb6A00.pdb
 183 172 0 0 0
SMALL
GASTEIGER

@<TRIPOS>ATOM
      1  N          6.4890   62.0210   46.2320 N.3    48  ARG48      -0.1245
      2  CA         7.3570   62.3610   47.3610 C.3    48  ARG48       0.1563
      3  C          6.8360   63.5920   48.0990 C.2    48  ARG48       0.2260
      4  O          6.7270   63.5850   49.3220 O.2    48  ARG48      -0.2867
      5  CB         8.7890   62.5970   46.8560 C.3    48  ARG48       0.0307
      6  CG         9.7410   63.1950   47.8690 C.3    48  ARG48       0.0489
      7  CD         9.9230   62.3040   49.0480 C.3    48  ARG48       0.2205
      8  NE        10.4300   60.9970   48.6610 N.pl3  48  ARG48      -0.0865
      9  CZ        10.4850   59.9720   49.5020 C.cat  48  ARG48       0.5346
     10  NH1       10.0700   60.1570   50.7500 N.pl3  48  ARG48       0.1354
     11  NH2       10.8920   58.7660   49.0930 N.pl3  48  ARG48       0.1354
     12  N          4.0940   62.9120   50.4030 N.3    51  LYS51      -0.1197
     13  CA         4.5490   62.2180   51.6390 C.3    51  LYS51       0.1778
     14  C          5.1780   63.2450   52.5890 C.2    51  LYS51       0.2305
     15  O          4.9510   63.2730   53.7950 O.2    51  LYS51      -0.2863
     16  CB         5.6270   61.1350   51.3410 C.2    51  LYS51      -0.0042
     17  CG         5.2090   59.9970   50.3800 C.2    51  LYS51      -0.0273
     18  CD         6.2900   58.9040   50.1300 C.3    51  LYS51       0.0462
     19  CE         6.3120   57.8160   51.2120 C.3    51  LYS51       0.1140
     20  NZ         5.0120   57.0950   51.3510 N.3    51  LYS51      -0.1310
     21  N         16.2870   63.1090   43.7370 N.3   141  LYS141     -0.1245
     22  CA        17.5210   62.3340   43.8260 C.3   141  LYS141      0.1561
     23  C         17.3720   60.9830   43.0690 C.2   141  LYS141      0.2260
     24  O         16.3410   60.3030   43.1770 O.2   141  LYS141     -0.2867
     25  CB        17.8370   62.1180   45.3060 C.3   141  LYS141      0.0271
     26  CG        19.0220   61.2420   45.5990 C.3   141  LYS141      0.0035
     27  CD        19.1340   60.9120   47.1110 C.3   141  LYS141      0.0206
     28  CE        19.7690   62.0520   47.9130 C.3   141  LYS141      0.1093
     29  NZ        21.1300   62.3890   47.3910 N.3   141  LYS141     -0.1314
     30  N          9.6590   53.1130   45.2900 N.3   155  LYS155     -0.1245
     31  CA         9.9290   54.2430   46.1540 C.3   155  LYS155      0.1561
     32  C          9.9720   55.4630   45.2300 C.2   155  LYS155      0.2260
     33  O         10.5950   55.4250   44.1760 O.2   155  LYS155     -0.2867
     34  CB        11.2950   54.1020   46.8180 C.3   155  LYS155      0.0271
     35  CG        11.3490   53.2250   48.0270 C.3   155  LYS155      0.0035
     36  CD        12.7980   52.8700   48.3180 C.3   155  LYS155      0.0206
     37  CE        12.9370   52.0920   49.6110 C.3   155  LYS155      0.1093
     38  NZ        12.5650   52.9080   50.8080 N.3   155  LYS155     -0.1314
     39  N         13.5600   60.7730   46.1660 N.3   158  ARG158     -0.1231
     40  CA        13.7300   61.5210   47.3890 C.3   158  ARG158      0.1694
     41  C         14.1520   62.8970   46.9020 C.2   158  ARG158      0.2592
     42  O         14.8310   63.0270   45.8640 O.2   158  ARG158     -0.2718
     43  CB        14.8080   60.8950   48.2570 C.3   158  ARG158      0.0321
     44  CG        14.2690   60.1080   49.4400 C.3   158  ARG158      0.0489
     45  CD        15.4320   59.4540   50.1150 C.3   158  ARG158      0.2205
     46  NE        16.5670   60.3580   50.0440 N.pl3 158  ARG158     -0.0865
     47  CZ        17.8310   60.0200   50.2710 C.cat 158  ARG158      0.5346
     48  NH1       18.1480   58.7710   50.5990 N.pl3 158  ARG158      0.1354
     49  NH2       18.7840   60.9380   50.1420 N.pl3 158  ARG158      0.1354
     50  N         13.7300   63.9220   47.6370 N.am  159  LEU159     -0.1966
     51  CA        14.0380   65.2980   47.2680 C.3   159  LEU159      0.1728
     52  C         15.2940   65.8360   47.9310 C.2   159  LEU159      0.2616
     53  O         15.4930   65.6490   49.1180 O.2   159  LEU159     -0.2715
     54  CB        12.8710   66.1930   47.6500 C.3   159  LEU159      0.0311
     55  CG        11.5550   65.6800   47.1140 C.3   159  LEU159      0.0022
     56  CD1       10.4250   66.4050   47.8680 C.3   159  LEU159      0.0001
     57  CD2       11.5240   65.8420   45.5770 C.3   159  LEU159      0.0001
     58  N         16.1370   66.5030   47.1560 N.am  160  ILE160     -0.1977
     59  CA        17.3590   67.0840   47.7020 C.3   160  ILE160      0.1596
     60  C         17.2590   68.5980   47.5700 C.2   160  ILE160      0.2287
     61  O         16.7940   69.1100   46.5410 O.2   160  ILE160     -0.2864
     62  CB        18.6180   66.5380   47.0040 C.3   160  ILE160      0.0276
     63  CG1       19.8530   67.2490   47.5630 C.3   160  ILE160      0.0022
     64  CG2       18.5140   66.6980   45.5290 C.3   160  ILE160      0.0022
     65  CD1       20.1350   66.9600   49.0760 C.3   160  ILE160      0.0001
     66  N         12.4980   54.9840   64.1330 N.3   220  ASP220     -0.1225
     67  CA        12.7840   55.8150   62.9630 C.3   220  ASP220      0.1805
     68  C         11.5420   56.6220   62.6630 C.2   220  ASP220      0.2598
     69  O         10.4260   56.0840   62.5750 O.2   220  ASP220     -0.2718
     70  CB        13.1580   55.0070   61.7160 C.3   220  ASP220      0.1424
     71  CG        13.6190   55.9150   60.5630 C.2   220  ASP220      0.3668
     72  OD1       14.8470   56.1950   60.4250 O.co2 220  ASP220     -0.2456
     73  OD2       12.7270   56.3660   59.8070 O.co2 220  ASP220     -0.2456
     74  N         11.7330   57.9200   62.4900 N.am  221  THR221     -0.1939
     75  CA        10.5860   58.7550   62.2540 C.3   221  THR221      0.2028
     76  C         10.1870   58.7380   60.7960 C.2   221  THR221      0.2642
     77  O         10.9760   58.4040   59.9190 O.2   221  THR221     -0.2714
     78  CB        10.8490   60.1720   62.7410 C.3   221  THR221      0.1808
     79  OG1       11.8900   60.7330   61.9580 O.3   221  THR221     -0.2208
     80  CG2       11.2950   60.1690   64.2050 C.3   221  THR221      0.0379
     81  N          8.9160   59.0330   60.5670 N.am  222  ARG222     -0.1963
     82  CA         8.3320   59.0790   59.2380 C.3   222  ARG222      0.1729
     83  C          8.8410   60.3650   58.5780 C.2   222  ARG222      0.2616
     84  O          8.4740   61.4700   59.0000 O.2   222  ARG222     -0.2715
     85  CB         6.7960   59.1050   59.3720 C.3   222  ARG222      0.0348
     86  CG         5.9910   59.1430   58.0620 C.3   222  ARG222      0.0492
     87  CD         4.4710   59.2090   58.3410 C.3   222  ARG222      0.2205
     88  NE         4.1040   60.3530   59.1860 N.pl3 222  ARG222     -0.0865
     89  CZ         3.8650   61.5870   58.7400 C.cat 222  ARG222      0.5346
     90  NH1        3.9370   61.8540   57.4400 N.pl3 222  ARG222      0.1354
     91  NH2        3.5790   62.5640   59.5990 N.pl3 222  ARG222      0.1354
     92  N          9.7000   60.2180   57.5680 N.am  223  CYS223     -0.1954
     93  CA        10.2400   61.3820   56.8660 C.3   223  CYS223      0.1843
     94  C         10.6930   62.4520   57.8600 C.2   223  CYS223      0.2625
     95  O         10.0440   63.5090   58.0280 O.2   223  CYS223     -0.2714
     96  CB         9.1840   61.9460   55.8980 C.3   223  CYS223      0.0997
     97  SG         8.9520   60.9480   54.3540 S.3   223  CYS223     -0.0797
     98  N         11.8350   62.1800   58.4950 N.am  224  PHE224     -0.1960
     99  CA        12.3530   63.0860   59.5250 C.3   224  PHE224      0.1771
    100  C         12.5420   64.5720   59.1250 C.2   224  PHE224      0.2620
    101  O         11.9820   65.4780   59.7750 O.2   224  PHE224     -0.2715
    102  CB        13.6500   62.5060   60.0770 C.3   224  PHE224      0.0574
    103  CG        14.1180   63.1400   61.3630 C.ar  224  PHE224     -0.0200
    104  CD1       15.1350   64.0930   61.3510 C.ar  224  PHE224     -0.0042
    105  CD2       13.6280   62.6960   62.5980 C.ar  224  PHE224     -0.0042
    106  CE1       15.6670   64.5930   62.5380 C.ar  224  PHE224     -0.0003
    107  CE2       14.1520   63.1930   63.7900 C.ar  224  PHE224     -0.0003
    108  CZ        15.1930   64.1450   63.7530 C.ar  224  PHE224     -0.0000
    109  N         13.3000   64.8260   58.0660 N.am  225  ASP225     -0.1957
    110  CA        13.5220   66.2090   57.6770 C.3   225  ASP225      0.1840
    111  C         12.2530   67.0710   57.7220 C.2   225  ASP225      0.2622
    112  O         12.2720   68.1850   58.2350 O.2   225  ASP225     -0.2715
    113  CB        14.1830   66.2600   56.3060 C.3   225  ASP225      0.1450
    114  CG        15.6450   65.8060   56.3340 C.2   225  ASP225      0.3671
    115  OD1       16.1410   65.4590   57.4170 O.co2 225  ASP225     -0.2456
    116  OD2       16.2950   65.7830   55.2680 O.co2 225  ASP225     -0.2456
    117  N         11.1430   66.5440   57.2080 N.am  226  SER226     -0.1950
    118  CA         9.8670   67.2620   57.2280 C.3   226  SER226      0.1924
    119  C          9.3410   67.4790   58.6420 C.2   226  SER226      0.2314
    120  O          8.5560   68.3710   58.8690 O.2   226  SER226     -0.2863
    121  CB         8.8270   66.4930   56.4370 C.3   226  SER226      0.2116
    122  OG         9.0460   66.6690   55.0560 O.3   226  SER226     -0.2180
    123  N         17.7610   68.9840   53.0860 N.3   282  SER282     -0.1217
    124  CA        18.6100   67.8040   52.9670 C.3   282  SER282      0.1889
    125  C         20.0640   68.0940   52.5950 C.2   282  SER282      0.2288
    126  O         20.9590   67.3490   53.0090 O.2   282  SER282     -0.2866
    127  CB        17.9960   66.8200   51.9740 C.3   282  SER282      0.2089
    128  OG        17.6980   67.4540   50.7480 O.3   282  SER282     -0.2183
    129  N         22.8150   69.4590   58.2090 N.3   287  THR287     -0.1203
    130  CA        21.7660   68.4700   58.3510 C.3   287  THR287      0.1994
    131  C         22.0430   67.1660   59.0950 C.2   287  THR287      0.2618
    132  O         21.1570   66.6470   59.7850 O.2   287  THR287     -0.2717
    133  CB        20.9770   68.2750   56.9930 C.3   287  THR287      0.1784
    134  OG1       20.5720   66.9170   56.8270 O.3   287  THR287     -0.2211
    135  CG2       21.7500   68.7600   55.8390 C.3   287  THR287      0.0376
    136  N         23.2620   66.6570   59.0450 N.am  288  SER288     -0.1951
    137  CA        23.5680   65.4360   59.7870 C.3   288  SER288      0.1924
    138  C         23.5900   65.7330   61.2750 C.2   288  SER288      0.2314
    139  O         22.8920   65.0920   62.0750 O.2   288  SER288     -0.2863
    140  CB        24.9320   64.8820   59.3710 C.3   288  SER288      0.2116
    141  OG        25.2510   63.7000   60.0610 O.3   288  SER288     -0.2180
    142  N         20.2810   66.8540   62.6540 N.3   291  ASN291     -0.1240
    143  CA        19.3580   65.7310   62.8550 C.3   291  ASN291      0.1653
    144  C         19.7330   64.8320   64.0000 C.2   291  ASN291      0.2266
    145  O         18.8650   64.3370   64.6950 O.2   291  ASN291     -0.2867
    146  CB        19.2290   64.8590   61.6100 C.3   291  ASN291      0.1155
    147  CG        18.4410   65.5210   60.5130 C.2   291  ASN291      0.2627
    148  OD1       17.6000   66.3910   60.7580 O.2   291  ASN291     -0.2716
    149  ND2       18.6960   65.0880   59.2820 N.am  291  ASN291     -0.0877
    150  N         22.0620   60.4660   62.5760 N.3   317  GLY317     -0.1210
    151  CA        21.0600   61.2020   61.8310 C.3   317  GLY317      0.1956
    152  C         19.7320   61.0070   62.5240 C.2   317  GLY317      0.2612
    153  O         19.5880   61.3960   63.6780 O.2   317  GLY317     -0.2717
    154  N         18.7700   60.3900   61.8420 N.am  318  ASP318     -0.1959
    155  CA        17.4460   60.1360   62.4140 C.3   318  ASP318      0.1840
    156  C         17.3450   58.6720   62.8510 C.2   318  ASP318      0.2622
    157  O         16.2690   58.2180   63.2550 O.2   318  ASP318     -0.2715
    158  CB        16.3610   60.4090   61.3720 C.3   318  ASP318      0.1450
    159  CG        16.4880   59.4980   60.1540 C.2   318  ASP318      0.3671
    160  OD1       17.4740   59.6460   59.3880 O.co2 318  ASP318     -0.2456
    161  OD2       15.6170   58.6240   59.9730 O.co2 318  ASP318     -0.2456
    162  N         18.4580   57.9340   62.7530 N.am  319  ASP319     -0.1971
    163  CA        18.5020   56.5110   63.1310 C.3   319  ASP319      0.1709
    164  C         18.7360   56.2900   64.6100 C.2   319  ASP319      0.2293
    165  O         19.8040   56.5410   65.1640 O.2   319  ASP319     -0.2864
    166  CB        19.5320   55.7870   62.2890 C.3   319  ASP319      0.1436
    167  CG        19.0690   55.6430   60.8520 C.2   319  ASP319      0.3671
    168  OD1       19.7350   56.1680   59.9140 O.co2 319  ASP319     -0.2456
    169  OD2       18.0070   55.0110   60.6700 O.co2 319  ASP319     -0.2456
    170  N          7.5860   55.7520   61.6250 N.3   351  GLY351     -0.1225
    171  CA         7.2150   55.2920   60.3030 C.3   351  GLY351      0.1811
    172  C          6.4580   54.0100   60.5670 C.2   351  GLY351      0.2280
    173  O          5.3840   53.7500   60.0320 O.2   351  GLY351     -0.2866
    174  N         26.2150   63.6110   55.6850 N.3   556  SER556     -0.1202
    175  CA        25.2150   63.3280   54.6500 C.3   556  SER556      0.2020
    176  C         24.5720   64.6210   54.1550 C.2   556  SER556      0.2619
    177  O         24.0290   65.3940   54.9370 O.2   556  SER556     -0.2717
    178  CB        24.1410   62.3700   55.2100 C.3   556  SER556      0.2103
    179  OG        23.0170   62.2240   54.3590 O.3   556  SER556     -0.2182
    180  N         24.6450   64.8290   52.8460 N.am  557  GLY557     -0.1956
    181  CA        24.0810   66.0130   52.2250 C.3   557  GLY557      0.1869
    182  C         24.9240   67.2350   52.5180 C.2   557  GLY557      0.2309
    183  O         24.5700   68.3410   52.1180 O.2   557  GLY557     -0.2863
@<TRIPOS>BOND
     1    23    24    2
     2    23    22    1
     3    21    22    1
     4    22    25    1
     5    33    32    2
     6    32    31    1
     7    30    31    1
     8    25    26    1
     9    64    62    1
    10    57    55    1
    11    26    27    1
    12    42    41    2
    13    31    34    1
    14    39    40    1
    15     1     2    1
    16    61    60    2
    17    34    35    1
    18     5     2    1
    19     5     6    1
    20    41    40    1
    21    41    50   am
    22    62    63    1
    23    62    59    1
    24    27    28    1
    25    55    54    1
    26    55    56    1
    27    58    59    1
    28    58    52   am
    29    51    50    1
    30    51    54    1
    31    51    52    1
    32     2     3    1
    33    40    43    1
    34    29    28    1
    35    63    65    1
    36    60    59    1
    37     6     7    1
    38    52    53    2
    39    35    36    1
    40     3     4    2
    41    43    44    1
    42    36    37    1
    43     8     7    1
    44     8     9    2
    45    11     9    1
    46    44    45    1
    47     9    10    1
    48    37    38    1
    49    46    45    1
    50    46    47    2
    51    18    17    1
    52    18    19    1
    53    49    47    1
    54    47    48    1
    55    17    16    2
    56    12    13    1
    57   128   127    1
    58    19    20    1
    59    16    13    1
    60    13    14    1
    61   127   124    1
    62   183   182    2
    63   181   182    1
    64   181   180    1
    65    14    15    2
    66   125   124    1
    67   125   126    2
    68   180   176   am
    69   124   123    1
    70   176   175    1
    71   176   177    2
    72    97    96    1
    73   179   178    1
    74   175   178    1
    75   175   174    1
    76   122   121    1
    77   116   114   ar
    78   135   133    1
    79    96    93    1
    80   113   114    1
    81   113   110    1
    82   114   115   ar
    83   121   118    1
    84   134   133    1
    85    93    92    1
    86    93    94    1
    87   133   130    1
    88   117   118    1
    89   117   111   am
    90   118   119    1
    91    90    89    1
    92    92    83   am
    93   110   111    1
    94   110   109    1
    95   111   112    2
    96    94    95    2
    97    94    98   am
    98    86    87    1
    99    86    85    1
   100   109   100   am
   101   129   130    1
   102    87    88    1
   103   130   131    1
   104    98    99    1
   105    83    84    2
   106    83    82    1
   107   119   120    2
   108    89    88    2
   109    89    91    1
   110   136   131   am
   111   136   137    1
   112   131   132    2
   113   100    99    1
   114   100   101    2
   115    82    85    1
   116    82    81    1
   117   149   147   am
   118   140   137    1
   119   140   141    1
   120   160   159   ar
   121    99   102    1
   122   137   138    1
   123    73    71   ar
   124   168   167   ar
   125    77    76    2
   126   161   159   ar
   127   173   172    2
   128   102   103    1
   129   159   158    1
   130   171   172    1
   131   171   170    1
   132    72    71   ar
   133   147   148    2
   134   147   146    1
   135    71    70    1
   136    81    76   am
   137   169   167   ar
   138    76    75    1
   139   167   166    1
   140   138   139    2
   141   104   103   ar
   142   104   106   ar
   143   103   105   ar
   144   158   155    1
   145   146   143    1
   146    70    67    1
   147   151   152    1
   148   151   150    1
   149   154   155    1
   150   154   152   am
   151    79    78    1
   152    75    74    1
   153    75    78    1
   154   166   163    1
   155   155   156    1
   156    74    68   am
   157   152   153    2
   158   106   108   ar
   159    69    68    2
   160   105   107   ar
   161   142   143    1
   162    68    67    1
   163    78    80    1
   164   162   156   am
   165   162   163    1
   166   156   157    2
   167   143   144    1
   168    67    66    1
   169   163   164    1
   170   108   107   ar
   171   144   145    2
   172   164   165    2
