@<TRIPOS>MOLECULE
tmp/1nb9A01.pdb
 167 155 0 0 0
SMALL
GASTEIGER

@<TRIPOS>ATOM
      1  N         -3.4450   32.9710   21.1600 N.3    15  PHE15      -0.1241
      2  CA        -2.7960   34.1070   20.5040 C.3    15  PHE15       0.1605
      3  C         -1.5060   34.4720   21.2400 C.2    15  PHE15       0.2264
      4  O         -1.1100   33.7910   22.1990 O.2    15  PHE15      -0.2867
      5  CB        -3.8270   35.2400   20.3260 C.3    15  PHE15       0.0534
      6  CG        -5.0040   34.7660   19.5410 C.ar   15  PHE15      -0.0203
      7  CD1       -4.9380   34.6720   18.1530 C.ar   15  PHE15      -0.0042
      8  CD2       -6.1040   34.2340   20.2070 C.ar   15  PHE15      -0.0042
      9  CE1       -5.9970   34.1120   17.4380 C.ar   15  PHE15      -0.0003
     10  CE2       -7.1670   33.6900   19.5030 C.ar   15  PHE15      -0.0003
     11  CZ        -7.1020   33.6380   18.0990 C.ar   15  PHE15      -0.0000
     12  N          2.5160   34.3990   21.6810 N.3    17  ARG17      -0.1231
     13  CA         3.3490   33.2220   21.4740 C.3    17  ARG17       0.1694
     14  C          2.9010   32.1740   22.4930 C.2    17  ARG17       0.2593
     15  O          2.6940   32.4720   23.6820 O.2    17  ARG17      -0.2718
     16  CB         4.8390   33.5340   21.6500 C.3    17  ARG17       0.0321
     17  CG         5.7390   32.2970   21.5670 C.3    17  ARG17       0.0489
     18  CD         7.2050   32.5890   21.3460 C.3    17  ARG17       0.2205
     19  NE         7.4210   32.6540   19.9180 N.pl3  17  ARG17      -0.0865
     20  CZ         7.5300   33.7710   19.2480 C.cat  17  ARG17       0.5346
     21  NH1        7.5090   34.9290   19.8890 N.pl3  17  ARG17       0.1354
     22  NH2        7.7000   33.7370   17.9500 N.pl3  17  ARG17       0.1354
     23  N          2.7690   30.9560   22.0220 N.am   18  GLY18      -0.1942
     24  CA         2.2770   29.8680   22.8180 C.3    18  GLY18       0.2014
     25  C          3.2580   29.5330   23.9120 C.2    18  GLY18       0.2639
     26  O          4.4620   29.6490   23.7030 O.2    18  GLY18      -0.2714
     27  N          2.7420   29.0790   25.0470 N.am   19  SER19      -0.1949
     28  CA         3.6070   28.7290   26.1810 C.3    19  SER19       0.1924
     29  C          4.3430   27.4180   25.9830 C.2    19  SER19       0.2314
     30  O          5.1550   27.0330   26.8380 O.2    19  SER19      -0.2863
     31  CB         2.8150   28.7170   27.4810 C.3    19  SER19       0.2116
     32  OG         1.7860   27.7450   27.4100 O.3    19  SER19      -0.2180
     33  N          7.9620   27.7270   26.6240 N.3    22  LEU22      -0.1245
     34  CA         8.4920   27.5710   27.9800 C.3    22  LEU22       0.1561
     35  C          8.5480   26.1160   28.4010 C.2    22  LEU22       0.2260
     36  O          9.0000   25.8080   29.5230 O.2    22  LEU22      -0.2867
     37  CB         7.6220   28.3490   28.9850 C.3    22  LEU22       0.0270
     38  CG         7.2240   29.7870   28.6560 C.3    22  LEU22       0.0019
     39  CD1        6.3190   30.2940   29.7350 C.3    22  LEU22       0.0001
     40  CD2        8.4360   30.6620   28.6000 C.3    22  LEU22       0.0001
     41  N          5.8690   24.5490   28.7030 N.3    24  ILE24      -0.1245
     42  CA         4.6730   24.4010   29.5340 C.3    24  ILE24       0.1561
     43  C          3.4150   24.6820   28.6790 C.2    24  ILE24       0.2260
     44  O          2.7950   25.7180   28.8550 O.2    24  ILE24      -0.2867
     45  CB         4.7280   25.2880   30.8090 C.3    24  ILE24       0.0252
     46  CG1        6.0650   25.0770   31.5560 C.3    24  ILE24       0.0019
     47  CG2        3.5170   24.9620   31.7370 C.3    24  ILE24       0.0019
     48  CD1        6.2620   26.0110   32.7550 C.3    24  ILE24       0.0001
     49  N         -0.1820   25.0960   27.1780 N.3    26  THR26      -0.1218
     50  CA        -1.4350   25.4280   27.8660 C.3    26  THR26       0.1862
     51  C         -2.5520   25.3380   26.8200 C.2    26  THR26       0.2287
     52  O         -2.5870   26.1020   25.8590 O.2    26  THR26      -0.2866
     53  CB        -1.4100   26.8670   28.3980 C.3    26  THR26       0.1770
     54  OG1       -0.7490   27.7260   27.4330 O.3    26  THR26      -0.2211
     55  CG2       -0.5460   26.9550   29.6490 C.3    26  THR26       0.0375
     56  N         -5.2970   30.4520   40.1250 N.3    45  ILE45      -0.1245
     57  CA        -4.6780   29.2090   39.6790 C.3    45  ILE45       0.1561
     58  C         -5.3260   28.0680   40.4190 C.2    45  ILE45       0.2260
     59  O         -5.4090   28.0970   41.6400 O.2    45  ILE45      -0.2867
     60  CB        -3.1560   29.2250   39.9600 C.3    45  ILE45       0.0252
     61  CG1       -2.5310   30.5370   39.4260 C.3    45  ILE45       0.0019
     62  CG2       -2.4810   28.0030   39.3350 C.3    45  ILE45       0.0019
     63  CD1       -2.9000   30.8550   37.9540 C.3    45  ILE45       0.0001
     64  N         -3.0400   21.6320   35.9790 N.3    61  VAL61      -0.1245
     65  CA        -3.2800   22.9520   36.5750 C.3    61  VAL61       0.1561
     66  C         -4.0240   23.7990   35.5530 C.2    61  VAL61       0.2260
     67  O         -3.8410   23.6070   34.3470 O.2    61  VAL61      -0.2867
     68  CB        -2.0030   23.6760   37.0090 C.3    61  VAL61       0.0252
     69  CG1       -1.3430   22.9990   38.2560 C.3    61  VAL61       0.0019
     70  CG2       -0.9730   23.7350   35.8740 C.3    61  VAL61       0.0019
     71  N         -5.0830   27.9510   34.7380 N.3    63  SER63      -0.1217
     72  CA        -5.0410   29.3710   35.0500 C.3    63  SER63       0.1889
     73  C         -6.2970   30.0550   34.5250 C.2    63  SER63       0.2288
     74  O         -6.5660   29.9960   33.3290 O.2    63  SER63      -0.2866
     75  CB        -3.8050   30.0000   34.4210 C.3    63  SER63       0.2089
     76  OG        -3.7570   31.3960   34.6400 O.3    63  SER63      -0.2183
     77  N         -6.8760   28.4300   30.7010 N.3    78  GLU78      -0.1245
     78  CA        -5.9320   27.5660   30.0020 C.3    78  GLU78       0.1567
     79  C         -5.4370   26.4830   30.9460 C.2    78  GLU78       0.2260
     80  O         -5.2850   26.7070   32.1620 O.2    78  GLU78      -0.2867
     81  CB        -4.7880   28.3970   29.4240 C.3    78  GLU78       0.0388
     82  CG        -3.9260   29.0220   30.4990 C.3    78  GLU78       0.1160
     83  CD        -2.7800   29.8340   29.9470 C.2    78  GLU78       0.3649
     84  OE1       -2.6340   30.0010   28.7040 O.co2  78  GLU78      -0.2457
     85  OE2       -2.0020   30.3290   30.8010 O.co2  78  GLU78      -0.2457
     86  N         -2.7240   23.3050   31.7160 N.3    80  HIS80      -0.1241
     87  CA        -1.5000   22.5740   31.4390 C.3    80  HIS80       0.1621
     88  C         -1.6500   21.2000   32.0750 C.2    80  HIS80       0.2264
     89  O         -1.9090   21.1020   33.2860 O.2    80  HIS80      -0.2867
     90  CB        -0.3090   23.2320   32.0940 C.3    80  HIS80       0.0745
     91  CG         0.9220   22.3820   32.0050 C.ar   80  HIS80       0.0817
     92  ND1        1.5250   22.0650   30.8130 N.ar   80  HIS80      -0.2268
     93  CD2        1.5850   21.6970   32.9600 C.ar   80  HIS80       0.1154
     94  CE1        2.5510   21.2570   31.0400 C.ar   80  HIS80       0.1986
     95  NE2        2.6180   21.0280   32.3410 N.ar   80  HIS80      -0.2212
     96  N         -3.9250   29.7040   44.4020 N.3   103  ARG103     -0.1245
     97  CA        -3.5850   31.0850   44.6750 C.3   103  ARG103      0.1563
     98  C         -4.2000   32.0150   43.6630 C.2   103  ARG103      0.2260
     99  O         -4.5350   31.5900   42.5250 O.2   103  ARG103     -0.2867
    100  CB        -2.0470   31.2540   44.5880 C.3   103  ARG103      0.0307
    101  CG        -1.4600   30.8840   43.1930 C.3   103  ARG103      0.0489
    102  CD         0.0480   31.1610   43.1380 C.3   103  ARG103      0.2205
    103  NE         0.6610   30.8990   41.8180 N.pl3 103  ARG103     -0.0865
    104  CZ         0.6500   31.7570   40.8050 C.cat 103  ARG103      0.5346
    105  NH1        0.0300   32.9280   40.8980 N.pl3 103  ARG103      0.1354
    106  NH2        1.2770   31.4390   39.6750 N.pl3 103  ARG103      0.1354
    107  N         -3.9670   35.1050   40.8930 N.3   105  GLU105     -0.1231
    108  CA        -2.9830   35.5680   39.9350 C.3   105  GLU105      0.1699
    109  C         -2.0690   36.5810   40.6030 C.2   105  GLU105      0.2592
    110  O         -2.4720   37.2650   41.5580 O.2   105  GLU105     -0.2718
    111  CB        -3.6870   36.3040   38.8090 C.3   105  GLU105      0.0402
    112  CG        -4.5770   35.4030   37.9830 C.3   105  GLU105      0.1161
    113  CD        -4.9110   36.0830   36.6750 C.2   105  GLU105      0.3649
    114  OE1       -5.7820   37.0000   36.7040 O.co2 105  GLU105     -0.2457
    115  OE2       -4.2650   35.7290   35.6520 O.co2 105  GLU105     -0.2457
    116  N         -0.8380   36.6630   40.1020 N.am  106  LYS106     -0.1966
    117  CA         0.1850   37.5550   40.6710 C.3   106  LYS106      0.1728
    118  C          0.9140   38.2700   39.5590 C.2   106  LYS106      0.2616
    119  O          0.9600   37.7900   38.4160 O.2   106  LYS106     -0.2715
    120  CB         1.1850   36.7630   41.5690 C.3   106  LYS106      0.0311
    121  CG         0.4960   36.1100   42.8030 C.3   106  LYS106      0.0038
    122  CD         1.4250   35.3510   43.8000 C.3   106  LYS106      0.0206
    123  CE         0.5760   34.7370   44.9460 C.3   106  LYS106      0.1093
    124  NZ         1.2650   33.6930   45.7800 N.3   106  LYS106     -0.1314
    125  N          1.4750   39.4310   39.8840 N.am  107  ASN107     -0.1958
    126  CA         2.2780   40.1780   38.9250 C.3   107  ASN107      0.1819
    127  C          3.7150   39.7620   39.1200 C.2   107  ASN107      0.2621
    128  O          4.2180   39.7590   40.2550 O.2   107  ASN107     -0.2715
    129  CB         2.1710   41.6990   39.1710 C.3   107  ASN107      0.1195
    130  CG         0.7950   42.2280   38.8850 C.2   107  ASN107      0.2630
    131  OD1        0.1400   41.8010   37.9310 O.2   107  ASN107     -0.2716
    132  ND2        0.3190   43.1340   39.7390 N.am  107  ASN107     -0.0877
    133  N          4.3970   39.4160   38.0370 N.am  108  PHE108     -0.1974
    134  CA         5.7970   39.0430   38.1750 C.3   108  PHE108      0.1639
    135  C          6.6740   40.0600   37.4510 C.2   108  PHE108      0.2290
    136  O          6.2700   40.6000   36.4240 O.2   108  PHE108     -0.2864
    137  CB         6.0050   37.6040   37.6580 C.3   108  PHE108      0.0560
    138  CG         5.3040   36.5570   38.4910 C.ar  108  PHE108     -0.0200
    139  CD1        5.8710   36.0920   39.6610 C.ar  108  PHE108     -0.0042
    140  CD2        4.0940   36.0200   38.0800 C.ar  108  PHE108     -0.0042
    141  CE1        5.2100   35.1190   40.4300 C.ar  108  PHE108     -0.0003
    142  CE2        3.4530   35.0460   38.8150 C.ar  108  PHE108     -0.0003
    143  CZ         4.0220   34.5930   40.0130 C.ar  108  PHE108     -0.0000
    144  N          8.2110   34.3230   36.8270 N.3   114  LEU114     -0.1245
    145  CA         6.9630   33.7220   36.3580 C.3   114  LEU114      0.1561
    146  C          7.1340   32.2130   36.1290 C.2   114  LEU114      0.2260
    147  O          6.3270   31.4090   36.5740 O.2   114  LEU114     -0.2867
    148  CB         6.4940   34.4030   35.0600 C.3   114  LEU114      0.0270
    149  CG         5.3240   33.7000   34.3400 C.3   114  LEU114      0.0019
    150  CD1        4.0220   33.6950   35.1900 C.3   114  LEU114      0.0001
    151  CD2        5.0820   34.4240   33.0340 C.3   114  LEU114      0.0001
    152  N          5.2050   29.1310   38.0180 N.3   118  ILE118     -0.1245
    153  CA         4.3750   28.1530   37.3450 C.3   118  ILE118      0.1561
    154  C          4.8660   26.7460   37.6890 C.2   118  ILE118      0.2260
    155  O          4.0440   25.8640   38.0050 O.2   118  ILE118     -0.2867
    156  CB         4.3630   28.3870   35.8240 C.3   118  ILE118      0.0252
    157  CG1        3.6760   29.7050   35.4870 C.3   118  ILE118      0.0019
    158  CG2        3.5900   27.1760   35.1190 C.3   118  ILE118      0.0019
    159  CD1        3.8390   30.1090   34.0040 C.3   118  ILE118      0.0001
    160  N          3.6890   25.8760   41.1340 N.3   121  ASP121     -0.1239
    161  CA         2.2530   25.5520   41.1040 C.3   121  ASP121      0.1674
    162  C          2.0940   24.0970   40.6780 C.2   121  ASP121      0.2266
    163  O          1.3090   23.3620   41.2540 O.2   121  ASP121     -0.2867
    164  CB         1.5490   26.3940   40.0520 C.3   121  ASP121      0.1410
    165  CG         1.4230   27.8690   40.4330 C.2   121  ASP121      0.3668
    166  OD1        1.4750   28.2140   41.6280 O.co2 121  ASP121     -0.2456
    167  OD2        1.2330   28.7330   39.5310 O.co2 121  ASP121     -0.2456
@<TRIPOS>BOND
     1     9    11   ar
     2     9     7   ar
     3    22    20    1
     4    11    10   ar
     5     7     6   ar
     6    20    21    1
     7    20    19    2
     8    10     8   ar
     9     6     8   ar
    10     6     5    1
    11    19    18    1
    12     5     2    1
    13     2     1    1
    14     2     3    1
    15     3     4    2
    16    18    17    1
    17    13    16    1
    18    13    12    1
    19    13    14    1
    20    17    16    1
    21    23    14   am
    22    23    24    1
    23    14    15    2
    24    24    25    1
    25    26    25    2
    26    25    27   am
    27    27    28    1
    28    52    51    2
    29    29    28    1
    30    29    30    2
    31    28    31    1
    32    33    34    1
    33    51    50    1
    34    49    50    1
    35    32    31    1
    36    54    53    1
    37    50    53    1
    38    34    35    1
    39    34    37    1
    40    53    55    1
    41    35    36    2
    42    40    38    1
    43    38    37    1
    44    38    39    1
    45    43    44    2
    46    43    42    1
    47    41    42    1
    48    84    83   ar
    49    81    78    1
    50    81    82    1
    51    42    45    1
    52    83    82    1
    53    83    85   ar
    54    78    77    1
    55    78    79    1
    56    45    46    1
    57    45    47    1
    58    92    94   ar
    59    92    91   ar
    60    79    80    2
    61    94    95   ar
    62    87    86    1
    63    87    88    1
    64    87    90    1
    65    46    48    1
    66    91    90    1
    67    91    93   ar
    68    88    89    2
    69    95    93   ar
    70   151   149    1
    71    74    73    2
    72   159   157    1
    73   149   148    1
    74   149   150    1
    75    67    66    2
    76    75    76    1
    77    75    72    1
    78    73    72    1
    79    71    72    1
    80   148   145    1
    81   158   156    1
    82   157   156    1
    83    66    65    1
    84   115   113   ar
    85   156   153    1
    86    70    68    1
    87    64    65    1
    88   146   145    1
    89   146   147    2
    90   145   144    1
    91   136   135    2
    92    65    68    1
    93   113   114   ar
    94   113   112    1
    95    68    69    1
    96   153   154    1
    97   153   152    1
    98   135   134    1
    99   137   134    1
   100   137   138    1
   101   154   155    2
   102   131   130    2
   103    63    61    1
   104   112   111    1
   105   133   134    1
   106   133   127   am
   107   140   138   ar
   108   140   142   ar
   109   119   118    2
   110   138   139   ar
   111   111   108    1
   112   142   143   ar
   113   130   129    1
   114   130   132   am
   115   126   127    1
   116   126   129    1
   117   126   125    1
   118   127   128    2
   119    62    60    1
   120    61    60    1
   121   167   165   ar
   122   118   125   am
   123   118   117    1
   124   139   141   ar
   125   106   104    1
   126    57    60    1
   127    57    56    1
   128    57    58    1
   129   108   109    1
   130   108   107    1
   131   143   141   ar
   132   164   165    1
   133   164   161    1
   134   116   109   am
   135   116   117    1
   136    58    59    2
   137   165   166   ar
   138   109   110    2
   139   117   120    1
   140   162   161    1
   141   162   163    2
   142   104   105    1
   143   104   103    2
   144   161   160    1
   145   120   121    1
   146   103   102    1
   147    99    98    2
   148   121   122    1
   149   102   101    1
   150   101   100    1
   151    98    97    1
   152   122   123    1
   153    96    97    1
   154   100    97    1
   155   123   124    1
