@<TRIPOS>MOLECULE
tmp/1nbbB00.pdb
 208 196 0 0 0
SMALL
GASTEIGER

@<TRIPOS>ATOM
      1  N         36.2910   53.7150   29.7940 N.3     7  LEU7       -0.1245
      2  CA        35.6250   53.2940   28.5780 C.3     7  LEU7        0.1561
      3  C         35.5970   51.7680   28.4950 C.2     7  LEU7        0.2260
      4  O         34.6060   51.1860   28.0560 O.2     7  LEU7       -0.2867
      5  CB        36.3170   53.9300   27.3660 C.3     7  LEU7        0.0270
      6  CG        35.4930   54.9440   26.5640 C.3     7  LEU7        0.0019
      7  CD1       34.6730   55.8610   27.4580 C.3     7  LEU7        0.0001
      8  CD2       36.4060   55.7540   25.6570 C.3     7  LEU7        0.0001
      9  N         32.8270   50.4590   31.2100 N.3    10  ARG10      -0.1245
     10  CA        31.4130   50.5170   30.8870 C.3    10  ARG10       0.1563
     11  C         31.0640   49.6610   29.6870 C.2    10  ARG10       0.2260
     12  O         29.9200   49.2480   29.5240 O.2    10  ARG10      -0.2867
     13  CB        30.8670   51.9450   30.7970 C.3    10  ARG10       0.0307
     14  CG        31.3250   52.7990   29.6660 C.3    10  ARG10       0.0489
     15  CD        30.9800   54.2520   30.0080 C.3    10  ARG10       0.2205
     16  NE        31.0860   55.1170   28.8400 N.pl3  10  ARG10      -0.0865
     17  CZ        31.4110   56.4040   28.8700 C.cat  10  ARG10       0.5346
     18  NH1       31.6930   57.0120   30.0260 N.pl3  10  ARG10       0.1354
     19  NH2       31.4730   57.0730   27.7240 N.pl3  10  ARG10       0.1354
     20  N         27.9870   47.2240   29.8460 N.3    14  PHE14      -0.1227
     21  CA        26.8860   47.0890   28.9020 C.3    14  PHE14       0.1736
     22  C         26.8470   45.8000   28.1040 C.2    14  PHE14       0.2595
     23  O         25.7500   45.3210   27.7800 O.2    14  PHE14      -0.2718
     24  CB        26.6960   48.3350   28.0110 C.3    14  PHE14       0.0547
     25  CG        27.7460   48.5270   26.9390 C.ar   14  PHE14      -0.0202
     26  CD1       27.9280   47.5810   25.9270 C.ar   14  PHE14      -0.0042
     27  CD2       28.5170   49.6870   26.9180 C.ar   14  PHE14      -0.0042
     28  CE1       28.8530   47.7880   24.9170 C.ar   14  PHE14      -0.0003
     29  CE2       29.4380   49.9050   25.9210 C.ar   14  PHE14      -0.0003
     30  CZ        29.6090   48.9480   24.9100 C.ar   14  PHE14      -0.0000
     31  N         28.0140   45.2180   27.8190 N.am   15  LYS15      -0.1980
     32  CA        28.0850   43.9430   27.0800 C.3    15  LYS15       0.1596
     33  C         27.5430   42.8320   27.9680 C.2    15  LYS15       0.2287
     34  O         26.9500   41.8780   27.4750 O.2    15  LYS15      -0.2864
     35  CB        29.5230   43.5780   26.6680 C.3    15  LYS15       0.0298
     36  CG        30.1010   44.3890   25.5120 C.3    15  LYS15       0.0038
     37  CD        31.5100   43.9470   25.1340 C.3    15  LYS15       0.0206
     38  CE        31.5840   42.5140   24.5330 C.3    15  LYS15       0.1093
     39  NZ        31.6050   41.3490   25.5030 N.3    15  LYS15      -0.1314
     40  N         25.1910   43.2130   30.4030 N.3    17  LEU17      -0.1231
     41  CA        23.7420   43.3950   30.4600 C.3    17  LEU17       0.1693
     42  C         23.0930   42.9280   29.1750 C.2    17  LEU17       0.2592
     43  O         22.0910   42.2360   29.2180 O.2    17  LEU17      -0.2718
     44  CB        23.3670   44.8660   30.6570 C.3    17  LEU17       0.0284
     45  CG        23.4330   45.5250   32.0250 C.3    17  LEU17       0.0019
     46  CD1       23.0730   46.9910   31.8610 C.3    17  LEU17       0.0001
     47  CD2       22.5130   44.8320   33.0140 C.3    17  LEU17       0.0001
     48  N         23.6500   43.3170   28.0370 N.am   18  GLY18      -0.1957
     49  CA        23.0700   42.9140   26.7710 C.3    18  GLY18       0.1869
     50  C         22.9370   41.4100   26.6690 C.2    18  GLY18       0.2309
     51  O         21.8760   40.8850   26.2920 O.2    18  GLY18      -0.2863
     52  N         20.0960   40.1700   29.1580 N.3    21  MET21      -0.1245
     53  CA        18.7850   40.4320   28.5760 C.3    21  MET21       0.1570
     54  C         18.4880   39.4010   27.5080 C.2    21  MET21       0.2261
     55  O         17.4180   38.7950   27.5060 O.2    21  MET21      -0.2867
     56  CB        18.7630   41.8230   27.9400 C.3    21  MET21       0.0387
     57  CG        18.3080   42.9140   28.8710 C.3    21  MET21       0.0595
     58  SD        16.5850   42.7100   29.3760 S.3    21  MET21      -0.1393
     59  CE        15.8310   42.2060   27.8270 C.3    21  MET21       0.0692
     60  N         22.4890   38.2510   36.6380 N.3    43  LEU43      -0.1245
     61  CA        21.9890   39.6260   36.5950 C.3    43  LEU43       0.1561
     62  C         22.2410   40.3590   37.8980 C.2    43  LEU43       0.2260
     63  O         22.6160   41.5250   37.8820 O.2    43  LEU43      -0.2867
     64  CB        20.5060   39.7090   36.2140 C.3    43  LEU43       0.0270
     65  CG        19.9000   41.1330   36.0520 C.3    43  LEU43       0.0019
     66  CD1       20.3940   41.7830   34.7790 C.3    43  LEU43       0.0001
     67  CD2       18.3730   41.0710   36.0320 C.3    43  LEU43       0.0001
     68  N         30.9380   57.2610   34.3290 N.3    55  PHE55      -0.1241
     69  CA        30.6000   58.3640   33.4430 C.3    55  PHE55       0.1605
     70  C         31.2790   59.6410   33.9260 C.2    55  PHE55       0.2264
     71  O         30.6280   60.6070   34.3330 O.2    55  PHE55      -0.2867
     72  CB        29.0660   58.5170   33.3500 C.3    55  PHE55       0.0534
     73  CG        28.3940   57.3790   32.6340 C.ar   55  PHE55      -0.0203
     74  CD1       28.3670   57.3380   31.2400 C.ar   55  PHE55      -0.0042
     75  CD2       27.8770   56.3080   33.3400 C.ar   55  PHE55      -0.0042
     76  CE1       27.8490   56.2430   30.5530 C.ar   55  PHE55      -0.0003
     77  CE2       27.3550   55.2050   32.6590 C.ar   55  PHE55      -0.0003
     78  CZ        27.3460   55.1750   31.2610 C.ar   55  PHE55      -0.0000
     79  N         32.7670   55.9530   21.8880 N.3    68  THR68      -0.1203
     80  CA        31.6140   55.7180   22.7490 C.3    68  THR68       0.1994
     81  C         30.3290   56.2970   22.1530 C.2    68  THR68       0.2618
     82  O         30.3710   57.1160   21.2330 O.2    68  THR68      -0.2717
     83  CB        31.8750   56.3650   24.1310 C.3    68  THR68       0.1784
     84  OG1       30.7090   56.2710   24.9590 O.3    68  THR68      -0.2211
     85  CG2       32.2860   57.8250   23.9650 C.3    68  THR68       0.0376
     86  N         29.1900   55.8760   22.6960 N.am   69  GLU69      -0.1965
     87  CA        27.8910   56.3520   22.2400 C.3    69  GLU69       0.1733
     88  C         27.2160   57.2280   23.2970 C.2    69  GLU69       0.2616
     89  O         26.1270   57.7710   23.0700 O.2    69  GLU69      -0.2715
     90  CB        26.9880   55.1710   21.8740 C.3    69  GLU69       0.0429
     91  CG        27.4600   54.3610   20.6790 C.3    69  GLU69       0.1163
     92  CD        26.6730   53.0660   20.4750 C.2    69  GLU69       0.3649
     93  OE1       25.4990   52.9490   20.9150 O.co2  69  GLU69      -0.2457
     94  OE2       27.2360   52.1500   19.8430 O.co2  69  GLU69      -0.2457
     95  N         27.8610   57.3800   24.4470 N.am   70  ALA70      -0.1977
     96  CA        27.3120   58.1940   25.5140 C.3    70  ALA70       0.1597
     97  C         27.1390   59.6530   25.0810 C.2    70  ALA70       0.2287
     98  O         28.1100   60.3260   24.7500 O.2    70  ALA70      -0.2864
     99  CB        28.2020   58.1090   26.7000 C.3    70  ALA70       0.0319
    100  N         23.9190   63.5420   28.8650 N.3    74  ILE74      -0.1245
    101  CA        24.0580   62.8550   30.1480 C.3    74  ILE74       0.1561
    102  C         24.5440   63.8110   31.2400 C.2    74  ILE74       0.2260
    103  O         23.8880   64.0030   32.2690 O.2    74  ILE74      -0.2867
    104  CB        25.0820   61.6630   30.0280 C.3    74  ILE74       0.0252
    105  CG1       24.4690   60.5300   29.2140 C.3    74  ILE74       0.0019
    106  CG2       25.5310   61.1640   31.4100 C.3    74  ILE74       0.0019
    107  CD1       25.4340   59.4120   28.9220 C.3    74  ILE74       0.0001
    108  N         19.6100   60.8610   34.6900 N.3    81  PHE81      -0.1241
    109  CA        20.4140   59.7330   34.2570 C.3    81  PHE81       0.1605
    110  C         20.4620   58.7480   35.4410 C.2    81  PHE81       0.2264
    111  O         20.2020   57.5460   35.2920 O.2    81  PHE81      -0.2867
    112  CB        21.8290   60.2110   33.8840 C.3    81  PHE81       0.0534
    113  CG        22.6910   59.1270   33.3150 C.ar   81  PHE81      -0.0203
    114  CD1       22.4040   58.5790   32.0830 C.ar   81  PHE81      -0.0042
    115  CD2       23.7400   58.6000   34.0500 C.ar   81  PHE81      -0.0042
    116  CE1       23.1360   57.5280   31.6010 C.ar   81  PHE81      -0.0003
    117  CE2       24.4720   57.5470   33.5670 C.ar   81  PHE81      -0.0003
    118  CZ        24.1670   57.0090   32.3430 C.ar   81  PHE81      -0.0000
    119  N         17.1140   57.1530   36.0110 N.3    84  LYS84      -0.1231
    120  CA        16.8840   56.0930   35.0310 C.3    84  LYS84       0.1693
    121  C         17.6970   54.8490   35.3740 C.2    84  LYS84       0.2592
    122  O         17.2810   53.7290   35.0690 O.2    84  LYS84      -0.2718
    123  CB        17.1700   56.5820   33.6080 C.3    84  LYS84       0.0285
    124  CG        16.1060   57.5150   33.1150 C.3    84  LYS84       0.0035
    125  CD        16.2640   57.8950   31.6650 C.3    84  LYS84       0.0206
    126  CE        14.9960   58.5960   31.1520 C.3    84  LYS84       0.1093
    127  NZ        14.4130   59.5620   32.1530 N.3    84  LYS84      -0.1314
    128  N         18.8380   55.0520   36.0280 N.am   85  GLY85      -0.1957
    129  CA        19.6710   53.9390   36.4490 C.3    85  GLY85       0.1869
    130  C         19.0750   53.1890   37.6380 C.2    85  GLY85       0.2309
    131  O         19.1590   51.9540   37.7180 O.2    85  GLY85      -0.2863
    132  N         16.1620   50.9290   36.6560 N.3    88  MET88      -0.1245
    133  CA        16.6470   49.6320   36.1460 C.3    88  MET88       0.1570
    134  C         17.0310   48.6810   37.2630 C.2    88  MET88       0.2261
    135  O         16.8140   47.4770   37.1500 O.2    88  MET88      -0.2867
    136  CB        17.8410   49.7750   35.1830 C.3    88  MET88       0.0387
    137  CG        18.4990   48.4030   34.9010 C.3    88  MET88       0.0595
    138  SD        20.1120   48.3960   34.1030 S.3    88  MET88      -0.1393
    139  CE        21.1910   49.0920   35.3750 C.3    88  MET88       0.0692
    140  N         11.9150   45.5660   32.8940 N.3   114  LEU114     -0.1245
    141  CA        13.3490   45.8230   32.8540 C.3   114  LEU114      0.1561
    142  C         13.6970   46.3140   31.4380 C.2   114  LEU114      0.2260
    143  O         14.3850   47.3200   31.2700 O.2   114  LEU114     -0.2867
    144  CB        14.1440   44.5400   33.1850 C.3   114  LEU114      0.0270
    145  CG        15.6840   44.5970   33.1310 C.3   114  LEU114      0.0019
    146  CD1       16.2300   45.5970   34.1490 C.3   114  LEU114      0.0001
    147  CD2       16.2720   43.2290   33.3780 C.3   114  LEU114      0.0001
    148  N         13.2050   49.9670   30.9070 N.3   117  THR117     -0.1203
    149  CA        14.1140   50.9060   31.5590 C.3   117  THR117      0.1994
    150  C         15.3870   51.0700   30.7280 C.2   117  THR117      0.2618
    151  O         16.0490   52.1080   30.7880 O.2   117  THR117     -0.2717
    152  CB        14.4460   50.4850   33.0100 C.3   117  THR117      0.1784
    153  OG1       15.2190   49.2860   33.0040 O.3   117  THR117     -0.2211
    154  CG2       13.1760   50.2420   33.8090 C.3   117  THR117      0.0376
    155  N         15.7160   50.0470   29.9390 N.am  118  CYS118     -0.1969
    156  CA        16.9000   50.0860   29.0770 C.3   118  CYS118      0.1712
    157  C         16.5980   51.1190   28.0260 C.2   118  CYS118      0.2296
    158  O         17.3450   52.0920   27.8670 O.2   118  CYS118     -0.2864
    159  CB        17.1380   48.7480   28.3790 C.3   118  CYS118      0.0983
    160  SG        17.0750   47.2810   29.4250 S.3   118  CYS118     -0.0798
    161  N         16.3710   54.9880   28.8810 N.3   121  CYS121     -0.1221
    162  CA        17.6490   55.6650   28.9990 C.3   121  CYS121      0.1808
    163  C         18.3430   55.8680   27.6640 C.2   121  CYS121      0.2601
    164  O         18.8310   56.9450   27.3560 O.2   121  CYS121     -0.2717
    165  CB        18.5770   54.8790   29.9180 C.3   121  CYS121      0.0970
    166  SG        19.9620   55.8540   30.4020 S.3   121  CYS121     -0.0800
    167  N         18.4410   54.7940   26.9020 N.am  122  HIS122     -0.1975
    168  CA        19.0830   54.8230   25.6040 C.3   122  HIS122      0.1656
    169  C         18.4360   55.8690   24.7090 C.2   122  HIS122      0.2291
    170  O         19.1190   56.5500   23.9630 O.2   122  HIS122     -0.2864
    171  CB        18.9890   53.4400   24.9520 C.3   122  HIS122      0.0771
    172  CG        19.7570   52.3750   25.6800 C.ar  122  HIS122      0.0820
    173  ND1       19.3030   51.0880   25.8660 N.ar  122  HIS122     -0.2267
    174  CD2       21.0020   52.4030   26.2180 C.ar  122  HIS122      0.1154
    175  CE1       20.2670   50.4020   26.4750 C.ar  122  HIS122      0.1986
    176  NE2       21.3150   51.1640   26.7110 N.ar  122  HIS122     -0.2212
    177  N         19.7880   59.1980   26.1500 N.3   125  TYR125     -0.1227
    178  CA        21.2170   59.2890   26.3680 C.3   125  TYR125      0.1736
    179  C         22.2510   58.5540   25.5600 C.2   125  TYR125      0.2595
    180  O         23.4230   58.6060   25.9160 O.2   125  TYR125     -0.2718
    181  CB        21.4810   59.0740   27.8490 C.3   125  TYR125      0.0548
    182  CG        20.6650   60.0230   28.6840 C.ar  125  TYR125     -0.0200
    183  CD1       20.8240   61.3940   28.5430 C.ar  125  TYR125     -0.0009
    184  CD2       19.7290   59.5570   29.6020 C.ar  125  TYR125     -0.0009
    185  CE1       20.0820   62.2680   29.2920 C.ar  125  TYR125      0.0417
    186  CE2       18.9950   60.4250   30.3510 C.ar  125  TYR125      0.0417
    187  CZ        19.1810   61.7800   30.1920 C.ar  125  TYR125      0.1957
    188  OH        18.5060   62.6690   30.9700 O.3   125  TYR125     -0.2866
    189  N         21.8670   57.8260   24.5250 N.am  126  ARG126     -0.1980
    190  CA        22.8880   57.1780   23.7250 C.3   126  ARG126      0.1597
    191  C         22.5140   57.2460   22.2680 C.2   126  ARG126      0.2287
    192  O         21.3300   57.2340   21.9140 O.2   126  ARG126     -0.2864
    193  CB        23.1740   55.7390   24.1800 C.3   126  ARG126      0.0334
    194  CG        22.4000   54.6500   23.4910 C.3   126  ARG126      0.0492
    195  CD        23.3340   53.6490   22.8530 C.3   126  ARG126      0.2205
    196  NE        22.9630   52.2560   23.1200 N.pl3 126  ARG126     -0.0865
    197  CZ        21.7790   51.7000   22.8430 C.cat 126  ARG126      0.5346
    198  NH1       20.8070   52.4060   22.2810 N.pl3 126  ARG126      0.1354
    199  NH2       21.5650   50.4180   23.1220 N.pl3 126  ARG126      0.1354
    200  N         23.6680   56.1680   18.0210 N.3   128  GLU128     -0.1245
    201  CA        24.0610   55.0210   17.2070 C.3   128  GLU128      0.1567
    202  C         23.8620   55.4020   15.7460 C.2   128  GLU128      0.2260
    203  O         23.1680   56.3860   15.4540 O.2   128  GLU128     -0.2867
    204  CB        23.2410   53.7760   17.5670 C.3   128  GLU128      0.0388
    205  CG        21.7640   54.0410   17.8550 C.3   128  GLU128      0.1160
    206  CD        21.2400   53.1980   19.0050 C.2   128  GLU128      0.3649
    207  OE1       21.8800   52.1690   19.3380 O.co2 128  GLU128     -0.2457
    208  OE2       20.1920   53.5750   19.5780 O.co2 128  GLU128     -0.2457
@<TRIPOS>BOND
     1   203   202    2
     2   202   201    1
     3   201   204    1
     4   201   200    1
     5   204   205    1
     6   205   206    1
     7   206   207   ar
     8   206   208   ar
     9    94    92   ar
    10    92    91    1
    11    92    93   ar
    12    91    90    1
    13    82    81    2
    14    90    87    1
    15    79    80    1
    16   192   191    2
    17    81    86   am
    18    81    80    1
    19    87    86    1
    20    87    88    1
    21   191   190    1
    22   198   197    1
    23    80    83    1
    24   197   196    2
    25   197   199    1
    26   195   196    1
    27   195   194    1
    28    89    88    2
    29    88    95   am
    30   194   193    1
    31   190   193    1
    32   190   189    1
    33   170   169    2
    34    85    83    1
    35    83    84    1
    36    95    96    1
    37   189   179   am
    38    38    37    1
    39    38    39    1
    40   169   168    1
    41    98    97    2
    42    30    28   ar
    43    30    29   ar
    44    28    26   ar
    45   171   168    1
    46   171   172    1
    47    97    96    1
    48    37    36    1
    49    36    35    1
    50    96    99    1
    51   179   180    2
    52   179   178    1
    53   168   167    1
    54     8     6    1
    55   172   173   ar
    56   172   174   ar
    57   173   175   ar
    58    29    27   ar
    59    26    25   ar
    60   177   178    1
    61   174   176   ar
    62    51    50    2
    63   178   181    1
    64   175   176   ar
    65     6     5    1
    66     6     7    1
    67    35    32    1
    68    50    49    1
    69    49    48    1
    70   167   163   am
    71    27    25   ar
    72    25    24    1
    73    32    31    1
    74    32    33    1
    75   164   163    2
    76     5     2    1
    77    34    33    2
    78    55    54    2
    79    54    53    1
    80   163   162    1
    81    19    17    1
    82    23    22    2
    83    31    22   am
    84    59    58    1
    85   181   182    1
    86   158   157    2
    87    56    53    1
    88    56    57    1
    89    24    21    1
    90   157   156    1
    91    48    42   am
    92     4     3    2
    93    22    21    1
    94   159   156    1
    95   159   160    1
    96     3     2    1
    97   183   182   ar
    98   183   185   ar
    99    53    52    1
   100     2     1    1
   101   182   184   ar
   102    16    17    2
   103    16    15    1
   104   100   101    1
   105    17    18    1
   106    57    58    1
   107   161   162    1
   108    21    20    1
   109   107   105    1
   110   162   165    1
   111   156   155    1
   112    42    43    2
   113    42    41    1
   114   105   104    1
   115   185   187   ar
   116    12    11    2
   117   184   186   ar
   118    14    15    1
   119    14    13    1
   120    11    10    1
   121   165   166    1
   122   155   150   am
   123   104   101    1
   124   104   106    1
   125   101   102    1
   126   187   186   ar
   127   187   188    1
   128    40    41    1
   129    41    44    1
   130    76    74   ar
   131    76    78   ar
   132    44    45    1
   133   150   151    2
   134   150   149    1
   135    13    10    1
   136    10     9    1
   137   148   149    1
   138   126   125    1
   139   126   127    1
   140    74    73   ar
   141   102   103    2
   142    78    77   ar
   143   143   142    2
   144   142   141    1
   145   149   152    1
   146   116   114   ar
   147   116   118   ar
   148   125   124    1
   149    46    45    1
   150    45    47    1
   151   114   113   ar
   152   118   117   ar
   153    73    75   ar
   154    73    72    1
   155    77    75   ar
   156   141   140    1
   157   141   144    1
   158   153   152    1
   159   152   154    1
   160   124   123    1
   161   145   144    1
   162   145   147    1
   163   145   146    1
   164   113   112    1
   165   113   115   ar
   166    72    69    1
   167    69    70    1
   168    69    68    1
   169   117   115   ar
   170   123   120    1
   171   112   109    1
   172    70    71    2
   173   138   137    1
   174   138   139    1
   175   109   108    1
   176   109   110    1
   177    66    65    1
   178   137   136    1
   179   120   121    1
   180   120   119    1
   181   122   121    2
   182   136   133    1
   183   111   110    2
   184   121   128   am
   185   128   129    1
   186    67    65    1
   187    65    64    1
   188   133   132    1
   189   133   134    1
   190    64    61    1
   191   129   130    1
   192    61    60    1
   193    61    62    1
   194   135   134    2
   195   130   131    2
   196    63    62    2
