@<TRIPOS>MOLECULE
tmp/1nbeA00.pdb
 94 90 0 0 0
SMALL
GASTEIGER

@<TRIPOS>ATOM
      1  N         50.6640   33.6410   18.4730 N.3    52  SER52      -0.1217
      2  CA        49.7470   32.6210   17.9830 C.3    52  SER52       0.1889
      3  C         50.3650   31.9350   16.7630 C.2    52  SER52       0.2288
      4  O         50.2120   32.3880   15.6350 O.2    52  SER52      -0.2866
      5  CB        48.3840   33.2270   17.6170 C.3    52  SER52       0.2089
      6  OG        47.5190   32.2010   17.1430 O.3    52  SER52      -0.2183
      7  N         49.6680   28.7930   15.3360 N.3    54  ARG54      -0.1231
      8  CA        48.6500   28.2350   14.4220 C.3    54  ARG54       0.1694
      9  C         48.2760   29.3110   13.4020 C.2    54  ARG54       0.2592
     10  O         48.5040   29.1330   12.2290 O.2    54  ARG54      -0.2718
     11  CB        47.3680   27.8650   15.1900 C.3    54  ARG54       0.0321
     12  CG        47.5810   27.1290   16.5120 C.3    54  ARG54       0.0489
     13  CD        46.4040   27.2910   17.5540 C.3    54  ARG54       0.2205
     14  NE        46.3970   28.5490   18.3250 N.pl3  54  ARG54      -0.0865
     15  CZ        47.1090   28.7620   19.4330 C.cat  54  ARG54       0.5346
     16  NH1       47.8910   27.8060   19.9080 N.pl3  54  ARG54       0.1354
     17  NH2       47.0390   29.9280   20.0770 N.pl3  54  ARG54       0.1354
     18  N         47.7720   30.4470   13.8900 N.am   55  THR55      -0.1953
     19  CA        47.3510   31.5970   13.0720 C.3    55  THR55       0.1897
     20  C         48.4560   32.3500   12.3690 C.2    55  THR55       0.2313
     21  O         48.2760   32.7770   11.2500 O.2    55  THR55      -0.2863
     22  CB        46.5490   32.6280   13.8890 C.3    55  THR55       0.1794
     23  OG1       45.3180   32.0400   14.3560 O.3    55  THR55      -0.2208
     24  CG2       46.2490   33.8640   13.0260 C.3    55  THR55       0.0378
     25  N         47.3720   40.7710   15.2320 N.3   105  ARG105     -0.1245
     26  CA        46.6480   40.1010   16.2930 C.3   105  ARG105      0.1563
     27  C         46.9530   40.9150   17.5400 C.2   105  ARG105      0.2260
     28  O         48.1240   41.2640   17.7930 O.2   105  ARG105     -0.2867
     29  CB        47.1250   38.6640   16.4620 C.3   105  ARG105      0.0307
     30  CG        46.1050   37.7900   17.1430 C.3   105  ARG105      0.0489
     31  CD        46.7800   36.6030   17.6600 C.3   105  ARG105      0.2205
     32  NE        45.9260   35.6780   18.3860 N.pl3 105  ARG105     -0.0865
     33  CZ        45.0530   34.8670   17.7970 C.cat 105  ARG105      0.5346
     34  NH1       44.8400   34.9540   16.4750 N.pl3 105  ARG105      0.1354
     35  NH2       44.3270   34.0230   18.5350 N.pl3 105  ARG105      0.1354
     36  N         37.5360   37.5730   15.1230 N.3   134  HIS134     -0.1241
     37  CA        38.5540   36.6970   14.5590 C.3   134  HIS134      0.1621
     38  C         37.9230   36.1730   13.2390 C.2   134  HIS134      0.2264
     39  O         37.8480   34.9750   13.0160 O.2   134  HIS134     -0.2867
     40  CB        38.8380   35.5640   15.5400 C.3   134  HIS134      0.0745
     41  CG        39.9950   34.7090   15.1510 C.ar  134  HIS134      0.0817
     42  ND1       41.0440   35.1720   14.3980 N.ar  134  HIS134     -0.2268
     43  CD2       40.2730   33.4160   15.4250 C.ar  134  HIS134      0.1154
     44  CE1       41.9240   34.2090   14.2240 C.ar  134  HIS134      0.1986
     45  NE2       41.4780   33.1300   14.8360 N.ar  134  HIS134     -0.2212
     46  N         39.0040   33.0450   10.9260 N.3   137  GLN137     -0.1245
     47  CA        38.6880   31.7270   11.4220 C.3   137  GLN137      0.1566
     48  C         37.3190   31.4050   10.8680 C.2   137  GLN137      0.2260
     49  O         37.0500   30.3100   10.3880 O.2   137  GLN137     -0.2867
     50  CB        38.6450   31.7500   12.9340 C.3   137  GLN137      0.0367
     51  CG        38.2200   30.4520   13.5620 C.3   137  GLN137      0.0905
     52  CD        39.0890   29.3010   13.1800 C.2   137  GLN137      0.2608
     53  OE1       40.3250   29.4060   13.1380 O.2   137  GLN137     -0.2717
     54  NE2       38.4510   28.1760   12.8680 N.am  137  GLN137     -0.0878
     55  N         34.7630   32.8320   21.4000 N.3   167  ARG167     -0.1231
     56  CA        34.8110   33.9130   20.4120 C.3   167  ARG167      0.1694
     57  C         34.4210   33.4040   19.0120 C.2   167  ARG167      0.2592
     58  O         33.7020   34.0830   18.2780 O.2   167  ARG167     -0.2718
     59  CB        36.2200   34.5350   20.4290 C.3   167  ARG167      0.0321
     60  CG        36.7350   35.1060   19.1400 C.3   167  ARG167      0.0489
     61  CD        37.9660   35.9770   19.3680 C.3   167  ARG167      0.2205
     62  NE        39.2520   35.2820   19.4350 N.pl3 167  ARG167     -0.0865
     63  CZ        40.4270   35.8940   19.2730 C.cat 167  ARG167      0.5346
     64  NH1       40.4750   37.2020   19.0010 N.pl3 167  ARG167      0.1354
     65  NH2       41.5590   35.2140   19.3590 N.pl3 167  ARG167      0.1354
     66  N         34.7980   32.1640   18.7100 N.am  168  THR168     -0.1953
     67  CA        34.5030   31.5310   17.4320 C.3   168  THR168      0.1897
     68  C         33.0200   31.1470   17.2020 C.2   168  THR168      0.2313
     69  O         32.5000   31.4200   16.1240 O.2   168  THR168     -0.2863
     70  CB        35.3400   30.2680   17.2210 C.3   168  THR168      0.1794
     71  OG1       36.7100   30.5140   17.5230 O.3   168  THR168     -0.2208
     72  CG2       35.2730   29.8740   15.7870 C.3   168  THR168      0.0378
     73  N         37.9160   24.6510   15.9670 N.3   266  PRO266     -0.2102
     74  CA        38.9670   25.6410   15.6600 C.3   266  PRO266      0.1504
     75  C         40.4220   25.2130   16.0000 C.2   266  PRO266      0.2576
     76  O         41.3550   25.5190   15.2510 O.2   266  PRO266     -0.2718
     77  CB        38.5270   26.8740   16.4430 C.3   266  PRO266      0.0282
     78  CG        37.9010   26.2920   17.6470 C.3   266  PRO266      0.0208
     79  CD        37.0720   25.1270   17.0800 C.3   266  PRO266      0.0893
     80  N         40.5670   24.4010   17.0420 N.am  267  LEU267     -0.1967
     81  CA        41.8640   23.9110   17.5180 C.3   267  LEU267      0.1713
     82  C         42.5690   24.9830   18.3390 C.2   267  LEU267      0.2458
     83  O         42.6690   26.1350   17.8910 O.2   267  LEU267     -0.2730
     84  CB        42.7400   23.3790   16.3840 C.3   267  LEU267      0.0310
     85  CG        42.1760   22.1060   15.7640 C.3   267  LEU267      0.0022
     86  CD1       43.0200   21.7720   14.5740 C.3   267  LEU267      0.0001
     87  CD2       42.1340   20.9510   16.7610 C.3   267  LEU267      0.0001
     88  N         43.2970   24.5610   19.4000 N.am  268  PRO268     -0.2727
     89  CA        43.5330   23.1940   19.8660 C.3   268  PRO268      0.1402
     90  C         42.4100   22.5010   20.5890 C.2   268  PRO268      0.2269
     91  O         41.5760   23.1440   21.2290 O.2   268  PRO268     -0.2865
     92  CB        44.7110   23.3850   20.8100 C.3   268  PRO268      0.0296
     93  CG        44.3100   24.6190   21.5470 C.3   268  PRO268      0.0237
     94  CD        43.6420   25.5140   20.4800 C.3   268  PRO268      0.0939
@<TRIPOS>BOND
     1    49    48    2
     2    48    47    1
     3    46    47    1
     4    21    20    2
     5    47    50    1
     6    10     9    2
     7    20    19    1
     8    54    52   am
     9    50    51    1
    10    39    38    2
    11    24    22    1
    12    19    22    1
    13    19    18    1
    14    53    52    2
    15    52    51    1
    16    38    37    1
    17     9    18   am
    18     9     8    1
    19    22    23    1
    20    44    42   ar
    21    44    45   ar
    22    42    41   ar
    23     8    11    1
    24     8     7    1
    25    37    36    1
    26    37    40    1
    27    86    85    1
    28    45    43   ar
    29    41    43   ar
    30    41    40    1
    31    11    12    1
    32    25    26    1
    33    76    75    2
    34     4     3    2
    35    74    73    1
    36    74    75    1
    37    74    77    1
    38    85    84    1
    39    85    87    1
    40    72    70    1
    41    73    79    1
    42    75    80   am
    43    69    68    2
    44    26    29    1
    45    26    27    1
    46    84    81    1
    47    77    78    1
    48    29    30    1
    49    34    33    1
    50    12    13    1
    51     3     2    1
    52    80    81    1
    53    79    78    1
    54    30    31    1
    55     6     5    1
    56    68    67    1
    57    70    67    1
    58    70    71    1
    59    67    66    1
    60    81    82    1
    61    27    28    2
    62    13    14    1
    63     5     2    1
    64    31    32    1
    65    33    32    2
    66    33    35    1
    67    83    82    2
    68     2     1    1
    69    58    57    2
    70    14    15    2
    71    82    88   am
    72    66    57   am
    73    64    63    1
    74    57    56    1
    75    60    61    1
    76    60    59    1
    77    63    65    1
    78    63    62    2
    79    61    62    1
    80    88    89    1
    81    88    94    1
    82    15    16    1
    83    15    17    1
    84    89    90    1
    85    89    92    1
    86    56    59    1
    87    56    55    1
    88    94    93    1
    89    90    91    2
    90    92    93    1
