@<TRIPOS>MOLECULE
tmp/1nbhD00.pdb
 234 228 0 0 0
SMALL
GASTEIGER

@<TRIPOS>ATOM
      1  N         44.2690  112.9530  146.2410 N.3    19  ASP19      -0.1239
      2  CA        43.3350  113.4790  147.2240 C.3    19  ASP19       0.1674
      3  C         42.0620  113.9090  146.5140 C.2    19  ASP19       0.2266
      4  O         42.0250  114.9470  145.8570 O.2    19  ASP19      -0.2867
      5  CB        43.9430  114.6740  147.9710 C.3    19  ASP19       0.1410
      6  CG        42.9970  115.2610  149.0090 C.2    19  ASP19       0.3668
      7  OD1       43.1920  116.4310  149.3990 O.co2  19  ASP19      -0.2456
      8  OD2       42.0580  114.5550  149.4360 O.co2  19  ASP19      -0.2456
      9  N         39.6670  115.2700  147.5870 N.3    21  TYR21      -0.1241
     10  CA        39.1470  116.5420  148.0910 C.3    21  TYR21       0.1605
     11  C         40.0900  117.7060  147.8170 C.2    21  TYR21       0.2264
     12  O         39.8760  118.8160  148.3180 O.2    21  TYR21      -0.2867
     13  CB        38.8730  116.4520  149.5970 C.3    21  TYR21       0.0534
     14  CG        37.8820  115.3750  149.9780 C.ar   21  TYR21      -0.0201
     15  CD1       38.2370  114.0310  149.9370 C.ar   21  TYR21      -0.0009
     16  CD2       36.5860  115.7010  150.3670 C.ar   21  TYR21      -0.0009
     17  CE1       37.3300  113.0380  150.2700 C.ar   21  TYR21       0.0417
     18  CE2       35.6690  114.7120  150.7040 C.ar   21  TYR21       0.0417
     19  CZ        36.0480  113.3820  150.6530 C.ar   21  TYR21       0.1957
     20  OH        35.1520  112.3920  150.9920 O.3    21  TYR21      -0.2866
     21  N         30.6390  120.7590  152.3340 N.3    30  TRP30      -0.1241
     22  CA        30.4140  119.5840  153.1590 C.3    30  TRP30       0.1605
     23  C         29.3180  119.8760  154.1620 C.2    30  TRP30       0.2264
     24  O         28.3980  119.0820  154.3460 O.2    30  TRP30      -0.2867
     25  CB        31.6880  119.1770  153.8940 C.3    30  TRP30       0.0550
     26  CG        31.6960  117.7290  154.1960 C.ar   30  TRP30       0.0003
     27  CD1       31.6700  117.1480  155.4270 C.ar   30  TRP30       0.0946
     28  CD2       31.6340  116.6630  153.2460 C.ar   30  TRP30       0.0152
     29  NE1       31.5900  115.7790  155.3050 N.ar   30  TRP30      -0.2442
     30  CE2       31.5660  115.4560  153.9740 C.ar   30  TRP30       0.0810
     31  CE3       31.6250  116.6090  151.8470 C.ar   30  TRP30       0.0012
     32  CZ2       31.4940  114.2110  153.3530 C.ar   30  TRP30       0.0191
     33  CZ3       31.5510  115.3630  151.2240 C.ar   30  TRP30       0.0001
     34  CH2       31.4860  114.1850  151.9780 C.ar   30  TRP30       0.0015
     35  N         26.1780  117.5670  154.8500 N.3    34  ILE34      -0.1245
     36  CA        25.8080  116.9460  156.1210 C.3    34  ILE34       0.1561
     37  C         24.4540  117.4520  156.6120 C.2    34  ILE34       0.2260
     38  O         23.6200  116.6730  157.0830 O.2    34  ILE34      -0.2867
     39  CB        26.8550  117.2400  157.2260 C.3    34  ILE34       0.0252
     40  CG1       28.1290  116.4360  156.9740 C.3    34  ILE34       0.0019
     41  CG2       26.2860  116.8790  158.5890 C.3    34  ILE34       0.0019
     42  CD1       29.2790  116.8500  157.8550 C.3    34  ILE34       0.0001
     43  N         22.3500  115.2310  162.8660 N.3    40  ARG40      -0.1245
     44  CA        23.0970  114.0600  162.4230 C.3    40  ARG40       0.1563
     45  C         23.6710  113.3450  163.6350 C.2    40  ARG40       0.2260
     46  O         23.3810  112.1730  163.8880 O.2    40  ARG40      -0.2867
     47  CB        24.2420  114.4770  161.4950 C.3    40  ARG40       0.0307
     48  CG        25.2580  113.3710  161.2590 C.3    40  ARG40       0.0489
     49  CD        26.5850  113.9040  160.7570 C.3    40  ARG40       0.2205
     50  NE        27.6650  112.9680  161.0560 N.pl3  40  ARG40      -0.0865
     51  CZ        28.5490  112.5200  160.1710 C.cat  40  ARG40       0.5346
     52  NH1       28.4920  112.9210  158.9100 N.pl3  40  ARG40       0.1354
     53  NH2       29.4960  111.6740  160.5530 N.pl3  40  ARG40       0.1354
     54  N         40.7320  109.2220  162.6300 N.3    63  VAL63      -0.1231
     55  CA        41.4970  109.1660  161.3910 C.3    63  VAL63       0.1692
     56  C         40.7700  109.6870  160.1530 C.2    63  VAL63       0.2592
     57  O         41.3660  109.7880  159.0820 O.2    63  VAL63      -0.2718
     58  CB        41.9960  107.7360  161.1200 C.3    63  VAL63       0.0266
     59  CG1       43.1590  107.4300  162.0340 C.3    63  VAL63       0.0020
     60  CG2       40.8700  106.7310  161.3320 C.3    63  VAL63       0.0020
     61  N         39.4840  109.9900  160.2940 N.am   64  ALA64      -0.1966
     62  CA        38.6860  110.5320  159.1960 C.3    64  ALA64       0.1728
     63  C         38.0910  111.8800  159.6220 C.2    64  ALA64       0.2616
     64  O         36.9380  112.1910  159.3160 O.2    64  ALA64      -0.2715
     65  CB        37.5830  109.5640  158.8270 C.3    64  ALA64       0.0334
     66  N         38.8830  112.6710  160.3410 N.am   65  CYS65      -0.1954
     67  CA        38.4360  113.9640  160.8530 C.3    65  CYS65       0.1843
     68  C         37.4590  114.7150  159.9820 C.2    65  CYS65       0.2626
     69  O         36.4010  115.1220  160.4500 O.2    65  CYS65      -0.2714
     70  CB        39.6150  114.8920  161.1370 C.3    65  CYS65       0.0997
     71  SG        39.0560  116.5330  161.6900 S.3    65  CYS65      -0.0797
     72  N         37.8180  114.9130  158.7210 N.am   66  GLY66      -0.1940
     73  CA        36.9410  115.6490  157.8300 C.3    66  GLY66       0.2014
     74  C         36.8670  117.0900  158.2990 C.2    66  GLY66       0.2639
     75  O         37.8980  117.7400  158.4890 O.2    66  GLY66      -0.2714
     76  N         35.6530  117.5930  158.4980 N.am   67  THR67      -0.1950
     77  CA        35.4750  118.9650  158.9590 C.3    67  THR67       0.1897
     78  C         35.4130  119.0290  160.4870 C.2    67  THR67       0.2313
     79  O         35.2760  120.1070  161.0660 O.2    67  THR67      -0.2863
     80  CB        34.1950  119.5890  158.3750 C.3    67  THR67       0.1794
     81  OG1       33.1170  118.6460  158.4580 O.3    67  THR67      -0.2208
     82  CG2       34.4220  119.9750  156.9210 C.3    67  THR67       0.0378
     83  N         33.1750  117.1250  162.4450 N.3    69  VAL69      -0.1231
     84  CA        31.8790  116.6910  162.9650 C.3    69  VAL69       0.1692
     85  C         31.9240  115.8270  164.2230 C.2    69  VAL69       0.2592
     86  O         31.4660  116.2440  165.2820 O.2    69  VAL69      -0.2718
     87  CB        31.0800  115.9130  161.9020 C.3    69  VAL69       0.0266
     88  CG1       29.6210  115.8450  162.3070 C.3    69  VAL69       0.0020
     89  CG2       31.2340  116.5770  160.5430 C.3    69  VAL69       0.0020
     90  N         32.4780  114.6270  164.1080 N.am   70  ASP70      -0.1974
     91  CA        32.5290  113.7220  165.2410 C.3    70  ASP70       0.1709
     92  C         33.6700  114.0020  166.2150 C.2    70  ASP70       0.2293
     93  O         33.5940  113.6550  167.3980 O.2    70  ASP70      -0.2864
     94  CB        32.5770  112.2810  164.7320 C.3    70  ASP70       0.1436
     95  CG        31.3040  111.8920  163.9900 C.2    70  ASP70       0.3671
     96  OD1       31.3580  111.6200  162.7710 O.co2  70  ASP70      -0.2456
     97  OD2       30.2380  111.8660  164.6300 O.co2  70  ASP70      -0.2456
     98  N         43.1290  113.5090  162.6450 N.3    84  VAL84      -0.1231
     99  CA        43.9910  113.5690  161.4800 C.3    84  VAL84       0.1692
    100  C         43.1470  113.3640  160.2400 C.2    84  VAL84       0.2592
    101  O         42.0350  112.8440  160.3040 O.2    84  VAL84      -0.2718
    102  CB        45.0810  112.4790  161.5150 C.3    84  VAL84       0.0266
    103  CG1       45.9920  112.6980  162.7080 C.3    84  VAL84       0.0020
    104  CG2       44.4450  111.1020  161.5740 C.3    84  VAL84       0.0020
    105  N         43.6860  113.7830  159.1070 N.am   85  ASP85      -0.1960
    106  CA        42.9940  113.6550  157.8400 C.3    85  ASP85       0.1840
    107  C         44.0090  113.9780  156.7570 C.2    85  ASP85       0.2622
    108  O         44.9560  114.7310  156.9910 O.2    85  ASP85      -0.2715
    109  CB        41.8220  114.6350  157.7970 C.3    85  ASP85       0.1450
    110  CG        40.9690  114.4670  156.5630 C.2    85  ASP85       0.3671
    111  OD1       39.8670  113.8820  156.6580 O.co2  85  ASP85      -0.2456
    112  OD2       41.4070  114.9300  155.4960 O.co2  85  ASP85      -0.2456
    113  N         43.8220  113.4100  155.5730 N.am   86  ALA86      -0.1963
    114  CA        44.7590  113.6480  154.4850 C.3    86  ALA86       0.1728
    115  C         44.4690  114.9280  153.7210 C.2    86  ALA86       0.2616
    116  O         45.3730  115.5360  153.1530 O.2    86  ALA86      -0.2715
    117  CB        44.7560  112.4670  153.5360 C.3    86  ALA86       0.0334
    118  N         43.2100  115.3400  153.7090 N.am   87  SER87      -0.1950
    119  CA        42.8210  116.5410  152.9940 C.3    87  SER87       0.1924
    120  C         42.9330  117.7860  153.8500 C.2    87  SER87       0.2314
    121  O         42.1760  117.9730  154.7980 O.2    87  SER87      -0.2863
    122  CB        41.3900  116.4160  152.4760 C.3    87  SER87       0.2116
    123  OG        40.8610  117.6990  152.1740 O.3    87  SER87      -0.2180
    124  N         39.7750  119.8900  153.9670 N.3    90  MET90      -0.1245
    125  CA        38.7300  119.5420  154.9060 C.3    90  MET90       0.1570
    126  C         39.1650  119.9820  156.2990 C.2    90  MET90       0.2261
    127  O         38.4590  120.7240  156.9780 O.2    90  MET90      -0.2867
    128  CB        38.5120  118.0400  154.8660 C.3    90  MET90       0.0387
    129  CG        38.0070  117.5550  153.5340 C.3    90  MET90       0.0595
    130  SD        36.3450  116.9720  153.7100 S.3    90  MET90      -0.1393
    131  CE        35.4760  118.4570  153.5110 C.3    90  MET90       0.0692
    132  N         47.4100  113.6340  158.0150 N.3   115  ALA115     -0.1231
    133  CA        47.9490  112.2820  158.0320 C.3   115  ALA115      0.1694
    134  C         47.2480  111.4010  157.0000 C.2   115  ALA115      0.2592
    135  O         46.1310  111.7010  156.5800 O.2   115  ALA115     -0.2718
    136  CB        47.8110  111.6830  159.4260 C.3   115  ALA115      0.0304
    137  N         47.9010  110.3190  156.5860 N.am  116  ASN116     -0.1960
    138  CA        47.3180  109.4170  155.6030 C.3   116  ASN116      0.1819
    139  C         47.3650  107.9840  156.1020 C.2   116  ASN116      0.2621
    140  O         48.4170  107.5100  156.5150 O.2   116  ASN116     -0.2715
    141  CB        48.0790  109.5170  154.2840 C.3   116  ASN116      0.1195
    142  CG        47.4440  108.6840  153.1870 C.2   116  ASN116      0.2630
    143  OD1       47.2770  107.4650  153.3270 O.2   116  ASN116     -0.2716
    144  ND2       47.0870  109.3320  152.0820 N.am  116  ASN116     -0.0877
    145  N         46.2290  107.2950  156.0540 N.am  117  TRP117     -0.1960
    146  CA        46.1660  105.9190  156.5200 C.3   117  TRP117      0.1771
    147  C         47.3460  105.1000  156.0200 C.2   117  TRP117      0.2619
    148  O         47.9580  104.3460  156.7810 O.2   117  TRP117     -0.2715
    149  CB        44.8530  105.2740  156.0850 C.3   117  TRP117      0.0590
    150  CG        43.6680  106.1100  156.4380 C.ar  117  TRP117      0.0006
    151  CD1       43.5320  106.9220  157.5290 C.ar  117  TRP117      0.0946
    152  CD2       42.4520  106.2300  155.6970 C.ar  117  TRP117      0.0152
    153  NE1       42.3070  107.5430  157.5140 N.ar  117  TRP117     -0.2442
    154  CE2       41.6220  107.1350  156.3990 C.ar  117  TRP117      0.0810
    155  CE3       41.9800  105.6620  154.5070 C.ar  117  TRP117      0.0012
    156  CZ2       40.3450  107.4840  155.9490 C.ar  117  TRP117      0.0191
    157  CZ3       40.7100  106.0120  154.0590 C.ar  117  TRP117      0.0001
    158  CH2       39.9080  106.9150  154.7810 C.ar  117  TRP117      0.0015
    159  N         47.6810  105.2650  154.7470 N.am  118  LEU118     -0.1977
    160  CA        48.7920  104.5240  154.1660 C.3   118  LEU118      0.1596
    161  C         50.1250  104.7210  154.9070 C.2   118  LEU118      0.2287
    162  O         50.9830  103.8390  154.8940 O.2   118  LEU118     -0.2864
    163  CB        48.9520  104.9040  152.6920 C.3   118  LEU118      0.0297
    164  CG        48.2170  104.0400  151.6640 C.3   118  LEU118      0.0022
    165  CD1       47.3460  103.0070  152.3570 C.3   118  LEU118      0.0001
    166  CD2       47.3670  104.9310  150.7730 C.3   118  LEU118      0.0001
    167  N         34.4070  106.8950  160.9580 N.3   136  LEU136     -0.1231
    168  CA        33.0190  106.9880  160.4800 C.3   136  LEU136      0.1693
    169  C         32.7660  107.8270  159.2100 C.2   136  LEU136      0.2593
    170  O         33.6430  108.5570  158.7300 O.2   136  LEU136     -0.2718
    171  CB        32.1060  107.5270  161.5970 C.3   136  LEU136      0.0284
    172  CG        32.1310  107.0080  163.0440 C.3   136  LEU136      0.0019
    173  CD1       32.8960  105.7010  163.1480 C.3   136  LEU136      0.0001
    174  CD2       32.7560  108.0680  163.9390 C.3   136  LEU136      0.0001
    175  N         31.5490  107.7000  158.6760 N.am  137  GLY137     -0.1942
    176  CA        31.1420  108.4520  157.4990 C.3   137  GLY137      0.2014
    177  C         31.5010  107.9100  156.1240 C.2   137  GLY137      0.2639
    178  O         31.4980  108.6640  155.1490 O.2   137  GLY137     -0.2714
    179  N         31.7840  106.6150  156.0270 N.am  138  ASN138     -0.1958
    180  CA        32.1540  106.0190  154.7450 C.3   138  ASN138      0.1819
    181  C         33.3980  106.7160  154.1970 C.2   138  ASN138      0.2622
    182  O         33.3990  107.2270  153.0760 O.2   138  ASN138     -0.2715
    183  CB        31.0050  106.1380  153.7390 C.3   138  ASN138      0.1195
    184  CG        31.2090  105.2610  152.5240 C.2   138  ASN138      0.2630
    185  OD1       31.7320  104.1500  152.6270 O.2   138  ASN138     -0.2716
    186  ND2       30.8000  105.7540  151.3610 N.am  138  ASN138     -0.0877
    187  N         34.4520  106.7410  155.0060 N.am  139  SER139     -0.1950
    188  CA        35.6980  107.3790  154.6190 C.3   139  SER139      0.1924
    189  C         36.6890  106.3850  154.0400 C.2   139  SER139      0.2314
    190  O         37.3140  106.6570  153.0180 O.2   139  SER139     -0.2863
    191  CB        36.3220  108.0740  155.8250 C.3   139  SER139      0.2116
    192  OG        35.4460  109.0510  156.3580 O.3   139  SER139     -0.2180
    193  N         37.1120  105.1910  150.3290 N.3   142  HIS142     -0.1226
    194  CA        37.7810  106.0470  149.3580 C.3   142  HIS142      0.1752
    195  C         39.0570  105.4020  148.8350 C.2   142  HIS142      0.2595
    196  O         39.4200  105.5850  147.6740 O.2   142  HIS142     -0.2718
    197  CB        38.1240  107.3930  149.9830 C.3   142  HIS142      0.0759
    198  CG        36.9680  108.3430  150.0530 C.ar  142  HIS142      0.0818
    199  ND1       36.5830  109.1310  148.9900 N.ar  142  HIS142     -0.2268
    200  CD2       36.1240  108.6350  151.0660 C.ar  142  HIS142      0.1154
    201  CE1       35.5460  109.8670  149.3480 C.ar  142  HIS142      0.1986
    202  NE2       35.2470  109.5860  150.6020 N.ar  142  HIS142     -0.2212
    203  N         39.7290  104.6390  149.6890 N.am  143  LEU143     -0.1980
    204  CA        40.9690  103.9770  149.2950 C.3   143  LEU143      0.1596
    205  C         40.7550  103.0410  148.1090 C.2   143  LEU143      0.2287
    206  O         39.9730  102.0940  148.1940 O.2   143  LEU143     -0.2864
    207  CB        41.5420  103.1940  150.4760 C.3   143  LEU143      0.0297
    208  CG        43.0530  103.2720  150.6890 C.3   143  LEU143      0.0022
    209  CD1       43.5750  104.6590  150.3480 C.3   143  LEU143      0.0001
    210  CD2       43.3590  102.9270  152.1330 C.3   143  LEU143      0.0001
    211  N         24.5080  112.0160  156.4610 N.3   194  TYR194     -0.1241
    212  CA        24.2710  113.1790  155.6160 C.3   194  TYR194      0.1605
    213  C         22.7720  113.3470  155.3880 C.2   194  TYR194      0.2264
    214  O         22.1810  112.6880  154.5320 O.2   194  TYR194     -0.2867
    215  CB        25.0120  113.0000  154.2850 C.3   194  TYR194      0.0534
    216  CG        26.4280  112.5010  154.4650 C.ar  194  TYR194     -0.0201
    217  CD1       26.7310  111.1460  154.3660 C.ar  194  TYR194     -0.0009
    218  CD2       27.4550  113.3800  154.7940 C.ar  194  TYR194     -0.0009
    219  CE1       28.0230  110.6790  154.5970 C.ar  194  TYR194      0.0417
    220  CE2       28.7500  112.9250  155.0260 C.ar  194  TYR194      0.0417
    221  CZ        29.0260  111.5770  154.9290 C.ar  194  TYR194      0.1957
    222  OH        30.3020  111.1310  155.1860 O.3   194  TYR194     -0.2866
    223  N         34.5280  105.4810  145.5210 N.3   242  TYR242     -0.1241
    224  CA        34.7250  104.5080  146.5890 C.3   242  TYR242      0.1605
    225  C         34.9410  103.0970  146.0630 C.2   242  TYR242      0.2264
    226  O         34.5210  102.7670  144.9580 O.2   242  TYR242     -0.2867
    227  CB        33.5020  104.4880  147.5020 C.3   242  TYR242      0.0534
    228  CG        32.9900  105.8490  147.8700 C.ar  242  TYR242     -0.0201
    229  CD1       33.4660  106.5130  149.0030 C.ar  242  TYR242     -0.0009
    230  CD2       32.0500  106.4920  147.0780 C.ar  242  TYR242     -0.0009
    231  CE1       33.0190  107.7920  149.3300 C.ar  242  TYR242      0.0417
    232  CE2       31.5950  107.7680  147.3960 C.ar  242  TYR242      0.0417
    233  CZ        32.0880  108.4110  148.5200 C.ar  242  TYR242      0.1957
    234  OH        31.6760  109.6860  148.8090 O.3   242  TYR242     -0.2866
@<TRIPOS>BOND
     1   226   225    2
     2   223   224    1
     3     4     3    2
     4   225   224    1
     5     1     2    1
     6     3     2    1
     7   224   227    1
     8   230   232   ar
     9   230   228   ar
    10     2     5    1
    11   232   233   ar
    12   227   228    1
    13     9    10    1
    14   196   195    2
    15    11    10    1
    16    11    12    2
    17   228   229   ar
    18     5     6    1
    19    10    13    1
    20   205   206    2
    21   205   204    1
    22   233   234    1
    23   233   231   ar
    24   195   194    1
    25   195   203   am
    26   199   201   ar
    27   199   198   ar
    28   229   231   ar
    29     6     7   ar
    30     6     8   ar
    31   204   203    1
    32   204   207    1
    33   201   202   ar
    34   194   197    1
    35   194   193    1
    36    13    14    1
    37    15    14   ar
    38    15    17   ar
    39    14    16   ar
    40   197   198    1
    41   198   200   ar
    42    17    19   ar
    43   209   208    1
    44    16    18   ar
    45   207   208    1
    46   202   200   ar
    47    19    18   ar
    48    19    20    1
    49   208   210    1
    50   166   164    1
    51    33    31   ar
    52    33    34   ar
    53   186   184   am
    54   164   165    1
    55   164   163    1
    56    31    28   ar
    57    34    32   ar
    58   144   142   am
    59   123   122    1
    60    21    22    1
    61   122   119    1
    62   184   185    2
    63   184   183    1
    64   163   160    1
    65   119   118    1
    66   119   120    1
    67   190   189    2
    68   182   181    2
    69   116   115    2
    70    22    25    1
    71    22    23    1
    72   142   143    2
    73   142   141    1
    74    28    30   ar
    75    28    26   ar
    76    32    30   ar
    77   131   130    1
    78   129   130    1
    79   129   128    1
    80   117   114    1
    81   118   115   am
    82   115   114    1
    83   183   180    1
    84   120   121    2
    85    25    26    1
    86   124   125    1
    87    30    29   ar
    88   189   188    1
    89   157   155   ar
    90   157   158   ar
    91    23    24    2
    92   160   159    1
    93   160   161    1
    94    26    27   ar
    95   181   180    1
    96   181   187   am
    97   141   138    1
    98   215   216    1
    99   215   212    1
   100   217   216   ar
   101   217   219   ar
   102   216   218   ar
   103   114   113    1
   104   155   152   ar
   105   214   213    2
   106   219   221   ar
   107   188   187    1
   108   188   191    1
   109   180   179    1
   110   159   147   am
   111   158   156   ar
   112   218   220   ar
   113    35    36    1
   114   128   125    1
   115   162   161    2
   116   125   126    1
   117   221   220   ar
   118   221   222    1
   119   178   177    2
   120    29    27   ar
   121   213   212    1
   122   112   110   ar
   123   113   107   am
   124   138   139    1
   125   138   137    1
   126   212   211    1
   127   152   154   ar
   128   152   150   ar
   129   191   192    1
   130   156   154   ar
   131   147   146    1
   132   147   148    2
   133   179   177   am
   134   145   139   am
   135   145   146    1
   136   149   150    1
   137   149   146    1
   138   139   140    2
   139    36    37    1
   140    36    39    1
   141   177   176    1
   142   126   127    2
   143   154   153   ar
   144   150   151   ar
   145   110   111   ar
   146   110   109    1
   147   135   134    2
   148   137   134   am
   149    37    38    2
   150   107   108    2
   151   107   106    1
   152    82    80    1
   153    40    39    1
   154    40    42    1
   155   134   133    1
   156    39    41    1
   157   176   175    1
   158   153   151   ar
   159   109   106    1
   160    73    74    1
   161    73    72    1
   162   106   105    1
   163   132   133    1
   164   133   136    1
   165    74    75    2
   166    74    76   am
   167    80    81    1
   168    80    77    1
   169    76    77    1
   170   175   169   am
   171    72    68   am
   172   170   169    2
   173    65    62    1
   174    52    51    1
   175    77    78    1
   176    57    56    2
   177   105   100   am
   178    62    63    1
   179    62    61    1
   180   169   168    1
   181    64    63    2
   182    63    66   am
   183    68    69    2
   184    68    67    1
   185    56    61   am
   186    56    55    1
   187    51    53    1
   188    51    50    2
   189   100   101    2
   190   100    99    1
   191    66    67    1
   192   168   167    1
   193   168   171    1
   194    78    79    2
   195    89    87    1
   196    49    50    1
   197    49    48    1
   198    67    70    1
   199    58    60    1
   200    58    55    1
   201    58    59    1
   202    70    71    1
   203    48    47    1
   204    55    54    1
   205    99   102    1
   206    99    98    1
   207    47    44    1
   208   102   104    1
   209   102   103    1
   210   171   172    1
   211    87    88    1
   212    87    84    1
   213    44    43    1
   214    44    45    1
   215    83    84    1
   216    96    95   ar
   217    84    85    1
   218   172   173    1
   219   172   174    1
   220    45    46    2
   221    95    97   ar
   222    95    94    1
   223    90    85   am
   224    90    91    1
   225    85    86    2
   226    94    91    1
   227    91    92    1
   228    92    93    2
