@<TRIPOS>MOLECULE
tmp/1nbpA00.pdb
 135 127 0 0 0
SMALL
GASTEIGER

@<TRIPOS>ATOM
      1  N         -1.5130   21.5690   16.5340 N.3    18  MET18      -0.1230
      2  CA        -1.4860   20.1140   16.6770 C.3    18  MET18       0.1702
      3  C         -0.2640   19.6200   17.4580 C.2    18  MET18       0.2592
      4  O         -0.3840   18.7420   18.3160 O.2    18  MET18      -0.2718
      5  CB        -1.5330   19.4680   15.2850 C.3    18  MET18       0.0401
      6  CG        -1.3540   17.9670   15.2450 C.3    18  MET18       0.0596
      7  SD        -2.2280   17.2270   13.8480 S.3    18  MET18      -0.1393
      8  CE        -3.4710   16.3280   14.7290 C.3    18  MET18       0.0692
      9  N          0.9060   20.1770   17.1490 N.am   19  ILE19      -0.1980
     10  CA         2.1430   19.8170   17.8430 C.3    19  ILE19       0.1595
     11  C          2.0860   20.2640   19.3040 C.2    19  ILE19       0.2287
     12  O          2.3600   19.4750   20.2090 O.2    19  ILE19      -0.2864
     13  CB         3.3850   20.4080   17.1220 C.3    19  ILE19       0.0276
     14  CG1        3.5010   19.8430   15.7020 C.3    19  ILE19       0.0022
     15  CG2        4.6570   20.1020   17.9050 C.3    19  ILE19       0.0022
     16  CD1        4.6240   20.4520   14.8670 C.3    19  ILE19       0.0001
     17  N         -0.3610   18.2050   21.2110 N.3    22  GLY22      -0.1210
     18  CA         0.2430   16.8970   21.4110 C.3    22  GLY22       0.1956
     19  C          1.2760   16.9010   22.5280 C.2    22  GLY22       0.2611
     20  O          1.3570   15.9530   23.3070 O.2    22  GLY22      -0.2717
     21  N          2.0610   17.9750   22.5980 N.am   23  ILE23      -0.1979
     22  CA         3.0790   18.1470   23.6360 C.3    23  ILE23       0.1595
     23  C          2.4530   18.4020   25.0150 C.2    23  ILE23       0.2287
     24  O          2.9040   17.8440   26.0170 O.2    23  ILE23      -0.2864
     25  CB         4.0680   19.2770   23.2370 C.3    23  ILE23       0.0276
     26  CG1        5.0440   18.7690   22.1760 C.3    23  ILE23       0.0022
     27  CG2        4.8330   19.8170   24.4480 C.3    23  ILE23       0.0022
     28  CD1        5.6250   19.8550   21.3240 C.3    23  ILE23       0.0001
     29  N         -0.0280   17.2040   26.1960 N.3    25  ASN25      -0.1225
     30  CA        -0.5740   15.9470   26.6980 C.3    25  ASN25       0.1785
     31  C          0.4970   14.9210   27.0940 C.2    25  ASN25       0.2597
     32  O          0.1720   13.7840   27.4510 O.2    25  ASN25      -0.2718
     33  CB        -1.5580   15.3520   25.6860 C.3    25  ASN25       0.1169
     34  CG        -2.9110   16.0480   25.7090 C.2    25  ASN25       0.2627
     35  OD1       -3.8430   15.5980   26.3750 O.2    25  ASN25      -0.2716
     36  ND2       -3.0210   17.1540   24.9820 N.am   25  ASN25      -0.0877
     37  N          1.7660   15.3270   27.0250 N.am   26  CYS26      -0.1956
     38  CA         2.8730   14.5210   27.5420 C.3    26  CYS26       0.1843
     39  C          2.8010   14.4620   29.0650 C.2    26  CYS26       0.2625
     40  O          2.2930   15.3880   29.7030 O.2    26  CYS26      -0.2714
     41  CB         4.2230   15.1210   27.1380 C.3    26  CYS26       0.0997
     42  SG         4.6450   15.0090   25.3850 S.3    26  CYS26      -0.0797
     43  N          3.3110   13.3770   29.6420 N.am   27  LYS27      -0.1977
     44  CA         3.3790   13.2470   31.0960 C.3    27  LYS27       0.1596
     45  C          4.4080   14.2320   31.6540 C.2    27  LYS27       0.2287
     46  O          5.4190   14.5170   31.0060 O.2    27  LYS27      -0.2864
     47  CB         3.7030   11.8080   31.5040 C.3    27  LYS27       0.0298
     48  CG         2.5410   10.8310   31.3050 C.3    27  LYS27       0.0038
     49  CD         2.6330    9.6360   32.2470 C.3    27  LYS27       0.0206
     50  CE         3.1180    8.3860   31.5210 C.3    27  LYS27       0.1093
     51  NZ         2.0070    7.6510   30.8530 N.3    27  LYS27      -0.1314
     52  N          8.3520   13.6230   31.6500 N.3    30  LYS30      -0.1245
     53  CA         8.7740   13.6290   30.2470 C.3    30  LYS30       0.1561
     54  C          8.7580   15.0500   29.6660 C.2    30  LYS30       0.2260
     55  O          9.7030   15.4610   28.9850 O.2    30  LYS30      -0.2867
     56  CB         7.8830   12.6940   29.4150 C.3    30  LYS30       0.0271
     57  CG         8.0250   12.8390   27.8960 C.3    30  LYS30       0.0035
     58  CD         8.7020   11.6300   27.2690 C.3    30  LYS30       0.0206
     59  CE         7.6930   10.7340   26.5660 C.3    30  LYS30       0.1093
     60  NZ         8.3420    9.5970   25.8540 N.3    30  LYS30      -0.1314
     61  N         11.6160   17.6550   28.0640 N.3    34  MET34      -0.1245
     62  CA        11.3910   18.2120   26.7320 C.3    34  MET34       0.1570
     63  C         11.5250   19.7330   26.7200 C.2    34  MET34       0.2261
     64  O         11.8680   20.3280   25.6930 O.2    34  MET34      -0.2867
     65  CB        10.0040   17.8180   26.2220 C.3    34  MET34       0.0387
     66  CG         9.8900   16.3740   25.7470 C.3    34  MET34       0.0595
     67  SD         8.1860   15.8930   25.3800 S.3    34  MET34      -0.1393
     68  CE         7.8150   16.9820   23.9800 C.3    34  MET34       0.0692
     69  N         10.6810   16.0600   18.8270 N.3    65  LEU65      -0.1245
     70  CA         9.4520   15.2860   18.6880 C.3    65  LEU65       0.1561
     71  C          9.7470   13.7960   18.5240 C.2    65  LEU65       0.2260
     72  O          9.0840   12.9640   19.1470 O.2    65  LEU65      -0.2867
     73  CB         8.6090   15.8010   17.5130 C.3    65  LEU65       0.0270
     74  CG         7.8670   17.1290   17.6750 C.3    65  LEU65       0.0019
     75  CD1        7.0030   17.3900   16.4530 C.3    65  LEU65       0.0001
     76  CD2        7.0180   17.1630   18.9480 C.3    65  LEU65       0.0001
     77  N         10.7200   12.1210   21.8110 N.3    68  ALA68      -0.1231
     78  CA         9.5460   11.7960   22.6200 C.3    68  ALA68       0.1694
     79  C          8.6620   10.7820   21.8880 C.2    68  ALA68       0.2591
     80  O          8.7090   10.6890   20.6590 O.2    68  ALA68      -0.2718
     81  CB         8.7660   13.0550   22.9430 C.3    68  ALA68       0.0304
     82  N          7.8710   10.0160   22.6380 N.am   69  GLN69      -0.1979
     83  CA         6.9400    9.0470   22.0400 C.3    69  GLN69       0.1601
     84  C          5.7940    8.6470   22.9740 C.2    69  GLN69       0.2287
     85  O          5.9800    8.4790   24.1790 O.2    69  GLN69      -0.2864
     86  CB         7.6750    7.8040   21.5060 C.3    69  GLN69       0.0394
     87  CG         8.5550    7.0640   22.5150 C.3    69  GLN69       0.0908
     88  CD         9.4050    5.9730   21.8740 C.2    69  GLN69       0.2608
     89  OE1       10.5960    5.8550   22.1700 O.2    69  GLN69      -0.2717
     90  NE2        8.7960    5.1720   21.0000 N.am   69  GLN69      -0.0878
     91  N          2.0450    6.8610   19.4980 N.3    70  PHE70      -0.1241
     92  CA         1.3890    8.0250   18.9120 C.3    70  PHE70       0.1605
     93  C          0.8820    7.7290   17.5020 C.2    70  PHE70       0.2264
     94  O          1.5200    6.9920   16.7460 O.2    70  PHE70      -0.2867
     95  CB         2.3400    9.2270   18.9000 C.3    70  PHE70       0.0534
     96  CG         1.6600   10.5450   19.1490 C.ar   70  PHE70      -0.0203
     97  CD1        1.0320   10.8050   20.3660 C.ar   70  PHE70      -0.0042
     98  CD2        1.6480   11.5320   18.1680 C.ar   70  PHE70      -0.0042
     99  CE1        0.4010   12.0240   20.5990 C.ar   70  PHE70      -0.0003
    100  CE2        1.0190   12.7550   18.3910 C.ar   70  PHE70      -0.0003
    101  CZ         0.3950   13.0010   19.6100 C.ar   70  PHE70      -0.0000
    102  N          0.5880    9.7920   15.0050 N.3    72  LEU72      -0.1231
    103  CA         1.2730   10.5870   13.9900 C.3    72  LEU72       0.1693
    104  C          2.7850   10.4200   14.0420 C.2    72  LEU72       0.2592
    105  O          3.3800   10.4030   15.1230 O.2    72  LEU72      -0.2718
    106  CB         0.9300   12.0680   14.1510 C.3    72  LEU72       0.0284
    107  CG        -0.4380   12.5530   13.6730 C.3    72  LEU72       0.0019
    108  CD1       -0.8250   13.7900   14.4550 C.3    72  LEU72       0.0001
    109  CD2       -0.4280   12.8400   12.1770 C.3    72  LEU72       0.0001
    110  N          3.3960   10.3030   12.8650 N.am   73  ARG73      -0.1966
    111  CA         4.8500   10.2840   12.7420 C.3    73  ARG73       0.1714
    112  C          5.3690   11.7060   12.5270 C.2    73  ARG73       0.2458
    113  O          4.9030   12.4070   11.6220 O.2    73  ARG73      -0.2730
    114  CB         5.2780    9.3760   11.6010 C.3    73  ARG73       0.0347
    115  CG         6.7690    9.0630   11.5620 C.3    73  ARG73       0.0492
    116  CD         7.0480    7.7020   10.9270 C.3    73  ARG73       0.2205
    117  NE         6.3730    7.5420    9.6430 N.pl3  73  ARG73      -0.0865
    118  CZ         5.3180    6.7560    9.4450 C.cat  73  ARG73       0.5346
    119  NH1        4.8560    5.9940   10.4290 N.pl3  73  ARG73       0.1354
    120  NH2        4.7350    6.7180    8.2550 N.pl3  73  ARG73       0.1354
    121  N          6.3170   12.1350   13.3650 N.am   74  PRO74      -0.2727
    122  CA         6.8790   13.4910   13.2820 C.3    74  PRO74       0.1402
    123  C          7.3500   13.8780   11.8810 C.2    74  PRO74       0.2269
    124  O          7.0640   14.9950   11.4580 O.2    74  PRO74      -0.2865
    125  CB         8.0580   13.4380   14.2570 C.3    74  PRO74       0.0296
    126  CG         7.6540   12.4160   15.2550 C.3    74  PRO74       0.0237
    127  CD         6.9160   11.3650   14.4710 C.3    74  PRO74       0.0939
    128  N          4.2750   15.2700    9.6060 N.3    77  LEU77      -0.1245
    129  CA         3.7270   16.5930    9.9280 C.3    77  LEU77       0.1561
    130  C          4.7410   17.7230    9.7450 C.2    77  LEU77       0.2260
    131  O          4.3710   18.8220    9.3330 O.2    77  LEU77      -0.2867
    132  CB         3.1280   16.6360   11.3420 C.3    77  LEU77       0.0270
    133  CG         2.3860   17.9300   11.7210 C.3    77  LEU77       0.0019
    134  CD1        1.2380   18.2350   10.7580 C.3    77  LEU77       0.0001
    135  CD2        1.8740   17.8710   13.1390 C.3    77  LEU77       0.0001
@<TRIPOS>BOND
     1   120   118    1
     2   131   130    2
     3   118   117    2
     4   118   119    1
     5   128   129    1
     6   117   116    1
     7   130   129    1
     8   129   132    1
     9   134   133    1
    10   116   115    1
    11   132   133    1
    12   124   123    2
    13   115   114    1
    14   114   111    1
    15   113   112    2
    16   133   135    1
    17   123   122    1
    18   109   107    1
    19   112   111    1
    20   112   121   am
    21   111   110    1
    22   110   104   am
    23   122   121    1
    24   122   125    1
    25   121   127    1
    26   107   106    1
    27   107   108    1
    28     7     8    1
    29     7     6    1
    30   103   104    1
    31   103   106    1
    32   103   102    1
    33   104   105    2
    34   125   126    1
    35   127   126    1
    36    16    14    1
    37     6     5    1
    38     5     2    1
    39    14    13    1
    40    75    74    1
    41     1     2    1
    42     2     3    1
    43    94    93    2
    44    13    10    1
    45    13    15    1
    46     9     3   am
    47     9    10    1
    48     3     4    2
    49    93    92    1
    50    73    74    1
    51    73    70    1
    52    74    76    1
    53    10    11    1
    54    98   100   ar
    55    98    96   ar
    56   100   101   ar
    57    71    70    1
    58    71    72    2
    59    70    69    1
    60    95    92    1
    61    95    96    1
    62    92    91    1
    63    96    97   ar
    64    11    12    2
    65   101    99   ar
    66    97    99   ar
    67    80    79    2
    68    90    88   am
    69    17    18    1
    70    28    26    1
    71    18    19    1
    72    86    83    1
    73    86    87    1
    74    77    78    1
    75    88    89    2
    76    88    87    1
    77    79    78    1
    78    79    82   am
    79    83    82    1
    80    83    84    1
    81    26    25    1
    82    19    21   am
    83    19    20    2
    84    21    22    1
    85    78    81    1
    86    84    85    2
    87    25    22    1
    88    25    27    1
    89    22    23    1
    90    68    67    1
    91    36    34   am
    92    23    24    2
    93    67    66    1
    94    42    41    1
    95    33    34    1
    96    33    30    1
    97    64    63    2
    98    34    35    2
    99    66    65    1
   100    60    59    1
   101    29    30    1
   102    65    62    1
   103    59    58    1
   104    30    31    1
   105    63    62    1
   106    62    61    1
   107    37    31   am
   108    37    38    1
   109    31    32    2
   110    41    38    1
   111    58    57    1
   112    38    39    1
   113    57    56    1
   114    55    54    2
   115    39    43   am
   116    39    40    2
   117    56    53    1
   118    43    44    1
   119    54    53    1
   120    53    52    1
   121    51    50    1
   122    46    45    2
   123    44    47    1
   124    44    45    1
   125    48    47    1
   126    48    49    1
   127    50    49    1
