@<TRIPOS>MOLECULE
tmp/1nbuA01.pdb
 77 72 0 0 0
SMALL
GASTEIGER

@<TRIPOS>ATOM
      1  N          4.7900  -27.0510   23.8030 N.3    16  GLY16      -0.1210
      2  CA         4.1200  -27.1330   22.5080 C.3    16  GLY16       0.1956
      3  C          3.3280  -28.4200   22.3760 C.2    16  GLY16       0.2611
      4  O          3.6450  -29.4600   22.9460 O.2    16  GLY16      -0.2717
      5  N          2.2520  -28.3440   21.5850 N.am   17  VAL17      -0.1979
      6  CA         1.3970  -29.5070   21.4170 C.3    17  VAL17       0.1595
      7  C          2.0530  -30.5880   20.5780 C.2    17  VAL17       0.2287
      8  O          1.9480  -31.7950   20.8240 O.2    17  VAL17      -0.2864
      9  CB         0.0530  -29.0850   20.7860 C.3    17  VAL17       0.0276
     10  CG1       -0.6240  -28.0560   21.6820 C.3    17  VAL17       0.0022
     11  CG2        0.2440  -28.5300   19.3870 C.3    17  VAL17       0.0022
     12  N          7.8780  -29.8790   18.1850 N.3    21  GLU21      -0.1245
     13  CA         8.1760  -28.6820   18.9680 C.3    21  GLU21       0.1567
     14  C          9.0430  -29.0050   20.1760 C.2    21  GLU21       0.2260
     15  O          9.8070  -28.1580   20.6670 O.2    21  GLU21      -0.2867
     16  CB         6.9120  -27.9850   19.4680 C.3    21  GLU21       0.0388
     17  CG         6.1840  -27.0880   18.4930 C.3    21  GLU21       0.1160
     18  CD         5.0220  -26.3130   19.0930 C.2    21  GLU21       0.3649
     19  OE1        5.2140  -25.1400   19.4960 O.co2  21  GLU21      -0.2457
     20  OE2        3.8900  -26.8340   19.1590 O.co2  21  GLU21      -0.2457
     21  N          2.4190  -29.0470   27.1660 N.3    70  LYS70      -0.1231
     22  CA         1.7880  -28.9650   25.8610 C.3    70  LYS70       0.1693
     23  C          1.3820  -27.5110   25.6250 C.2    70  LYS70       0.2592
     24  O          1.5680  -27.0020   24.5230 O.2    70  LYS70      -0.2718
     25  CB         0.5430  -29.8340   25.7510 C.3    70  LYS70       0.0285
     26  CG         0.7480  -31.2380   25.2190 C.3    70  LYS70       0.0035
     27  CD        -0.5820  -31.8520   24.8070 C.3    70  LYS70       0.0206
     28  CE        -1.4550  -30.8580   24.0630 C.3    70  LYS70       0.1093
     29  NZ        -2.9110  -31.1710   24.1850 N.3    70  LYS70      -0.1314
     30  N          0.8360  -26.9280   26.7020 N.am   71  LEU71      -0.1966
     31  CA         0.3140  -25.5720   26.5860 C.3    71  LEU71       0.1728
     32  C          1.0010  -24.4700   27.3750 C.2    71  LEU71       0.2616
     33  O          1.4300  -24.6470   28.5110 O.2    71  LEU71      -0.2715
     34  CB        -1.1380  -25.5870   27.0780 C.3    71  LEU71       0.0311
     35  CG        -2.0020  -26.6140   26.3360 C.3    71  LEU71       0.0022
     36  CD1       -3.3730  -26.6000   27.0010 C.3    71  LEU71       0.0001
     37  CD2       -2.0690  -26.2950   24.8500 C.3    71  LEU71       0.0001
     38  N          1.0360  -23.2970   26.7210 N.am   72  ILE72      -0.1963
     39  CA         1.5550  -22.1420   27.4360 C.3    72  ILE72       0.1727
     40  C          0.5990  -21.7090   28.5470 C.2    72  ILE72       0.2616
     41  O          1.0740  -20.9890   29.4380 O.2    72  ILE72      -0.2715
     42  CB         1.8480  -20.9520   26.5120 C.3    72  ILE72       0.0290
     43  CG1        0.7690  -20.5930   25.4890 C.3    72  ILE72       0.0022
     44  CG2        3.1840  -21.1800   25.7920 C.3    72  ILE72       0.0023
     45  CD1        1.1210  -19.2710   24.7960 C.3    72  ILE72       0.0001
     46  N         -0.6540  -22.1100   28.5610 N.am   73  GLU73      -0.1977
     47  CA        -1.6000  -21.8980   29.6490 C.3    73  GLU73       0.1602
     48  C         -1.0630  -22.4670   30.9580 C.2    73  GLU73       0.2287
     49  O         -1.1050  -21.9040   32.0470 O.2    73  GLU73      -0.2864
     50  CB        -2.9350  -22.5750   29.2970 C.3    73  GLU73       0.0415
     51  CG        -3.8640  -21.7640   28.4080 C.3    73  GLU73       0.1163
     52  CD        -3.5650  -21.8210   26.9270 C.2    73  GLU73       0.3649
     53  OE1       -2.4630  -22.2580   26.5170 O.co2  73  GLU73      -0.2457
     54  OE2       -4.4440  -21.4120   26.1360 O.co2  73  GLU73      -0.2457
     55  N          4.7720  -16.6290   22.9350 N.3    98  LYS98      -0.1245
     56  CA         5.4320  -17.6380   22.0960 C.3    98  LYS98       0.1561
     57  C          5.6630  -16.9940   20.7260 C.2    98  LYS98       0.2260
     58  O          5.0170  -17.3430   19.7190 O.2    98  LYS98      -0.2867
     59  CB         4.5660  -18.8820   22.1440 C.3    98  LYS98       0.0271
     60  CG         5.0470  -20.0960   21.4000 C.3    98  LYS98       0.0035
     61  CD         4.0350  -21.2290   21.5390 C.3    98  LYS98       0.0206
     62  CE         4.5890  -22.5410   21.0010 C.3    98  LYS98       0.1093
     63  NZ         3.5150  -23.5910   21.0660 N.3    98  LYS98      -0.1314
     64  N          5.0940  -21.8370   15.6520 N.3   102  PRO102     -0.2116
     65  CA         5.1610  -22.3010   14.2700 C.3   102  PRO102      0.1372
     66  C          3.7560  -22.2990   13.6780 C.2   102  PRO102      0.2244
     67  O          3.0560  -23.3100   13.6980 O.2   102  PRO102     -0.2868
     68  CB         5.7050  -23.7210   14.4190 C.3   102  PRO102      0.0268
     69  CG         5.2940  -24.1650   15.7840 C.3   102  PRO102      0.0207
     70  CD         5.2000  -22.9240   16.6320 C.3   102  PRO102      0.0892
     71  N         -0.5660  -16.0710   26.0210 N.3   112  VAL112     -0.1245
     72  CA        -1.7020  -16.1550   26.9210 C.3   112  VAL112      0.1561
     73  C         -1.3720  -15.3060   28.1490 C.2   112  VAL112      0.2260
     74  O         -0.1800  -15.1040   28.4420 O.2   112  VAL112     -0.2867
     75  CB        -1.9620  -17.6030   27.3460 C.3   112  VAL112      0.0252
     76  CG1       -2.2260  -18.4590   26.1020 C.3   112  VAL112      0.0019
     77  CG2       -0.7940  -18.1260   28.1600 C.3   112  VAL112      0.0019
@<TRIPOS>BOND
     1    66    67    2
     2    66    65    1
     3    65    68    1
     4    65    64    1
     5    68    69    1
     6    64    70    1
     7    69    70    1
     8    12    13    1
     9    17    18    1
    10    17    16    1
    11    13    16    1
    12    13    14    1
    13    18    20   ar
    14    18    19   ar
    15    11     9    1
    16    58    57    2
    17    14    15    2
    18     7     8    2
    19     7     6    1
    20    57    56    1
    21     9     6    1
    22     9    10    1
    23    62    63    1
    24    62    61    1
    25    60    61    1
    26    60    59    1
    27     6     5    1
    28     5     3   am
    29    56    59    1
    30    56    55    1
    31     3     2    1
    32     3     4    2
    33     2     1    1
    34    28    29    1
    35    28    27    1
    36    24    23    2
    37    45    43    1
    38    27    26    1
    39    37    35    1
    40    26    25    1
    41    43    42    1
    42    23    22    1
    43    23    30   am
    44    25    22    1
    45    44    42    1
    46    22    21    1
    47    71    72    1
    48    76    75    1
    49    54    52   ar
    50    35    36    1
    51    35    34    1
    52    42    39    1
    53    53    52   ar
    54    31    30    1
    55    31    34    1
    56    31    32    1
    57    38    32   am
    58    38    39    1
    59    72    75    1
    60    72    73    1
    61    52    51    1
    62    75    77    1
    63    32    33    2
    64    39    40    1
    65    73    74    2
    66    51    50    1
    67    40    46   am
    68    40    41    2
    69    46    47    1
    70    50    47    1
    71    47    48    1
    72    48    49    2
