@<TRIPOS>MOLECULE
tmp/1nc1B00.pdb
 143 135 0 0 0
SMALL
GASTEIGER

@<TRIPOS>ATOM
      1  N         54.1110   86.4080   46.4600 N.3     8  ALA8       -0.1231
      2  CA        54.2560   87.1050   45.1780 C.3     8  ALA8        0.1694
      3  C         54.3310   88.6300   45.2380 C.2     8  ALA8        0.2591
      4  O         55.2190   89.2340   44.6180 O.2     8  ALA8       -0.2718
      5  CB        53.1190   86.6980   44.2490 C.3     8  ALA8        0.0304
      6  N         53.4020   89.2260   45.9870 N.am    9  MET9       -0.1979
      7  CA        53.2650   90.6670   46.1080 C.3     9  MET9        0.1605
      8  C         53.7620   91.2810   47.4220 C.2     9  MET9        0.2287
      9  O         53.9000   90.6010   48.4320 O.2     9  MET9       -0.2864
     10  CB        51.7820   91.0270   45.9190 C.3     9  MET9        0.0413
     11  CG        51.2280   90.6500   44.5140 C.3     9  MET9        0.0598
     12  SD        49.4160   90.8650   44.4110 S.3     9  MET9       -0.1393
     13  CE        48.8980   89.3570   45.1340 C.3     9  MET9        0.0692
     14  N         51.7130   90.5540   50.3400 N.3    12  GLU12      -0.1245
     15  CA        51.8280   89.1870   50.8590 C.3    12  GLU12       0.1567
     16  C         53.1050   88.8770   51.6390 C.2    12  GLU12       0.2260
     17  O         53.1700   87.8670   52.3380 O.2    12  GLU12      -0.2867
     18  CB        51.6550   88.1760   49.7110 C.3    12  GLU12       0.0388
     19  CG        50.3080   88.2960   49.0010 C.3    12  GLU12       0.1160
     20  CD        50.2990   87.6170   47.6330 C.2    12  GLU12       0.3649
     21  OE1       51.3090   87.7570   46.9090 O.co2  12  GLU12      -0.2457
     22  OE2       49.2770   86.9670   47.2910 O.co2  12  GLU12      -0.2457
     23  N         54.5970   88.2390   40.3790 N.3    50  ILE50      -0.1245
     24  CA        53.4210   87.4980   39.9510 C.3    50  ILE50       0.1561
     25  C         53.6100   86.6220   38.7290 C.2    50  ILE50       0.2260
     26  O         54.2960   86.9990   37.7930 O.2    50  ILE50      -0.2867
     27  CB        52.2630   88.5180   39.6710 C.3    50  ILE50       0.0252
     28  CG1       51.8070   89.1440   41.0010 C.3    50  ILE50       0.0019
     29  CG2       51.1090   87.8520   38.9110 C.3    50  ILE50       0.0019
     30  CD1       50.9140   90.3730   40.8600 C.3    50  ILE50       0.0001
     31  N         47.4920   85.1920   48.6200 N.3    76  SER76      -0.1202
     32  CA        46.0540   85.1690   48.3750 C.3    76  SER76       0.2020
     33  C         45.6880   84.1680   47.3020 C.2    76  SER76       0.2619
     34  O         46.5630   83.6290   46.6140 O.2    76  SER76      -0.2717
     35  CB        45.5650   86.5560   47.9310 C.3    76  SER76       0.2103
     36  OG        46.2280   86.9830   46.7460 O.3    76  SER76      -0.2182
     37  N         44.3820   83.9480   47.1410 N.am   77  ALA77      -0.1965
     38  CA        43.8850   83.0150   46.1370 C.3    77  ALA77       0.1728
     39  C         42.3880   83.2380   45.8770 C.2    77  ALA77       0.2616
     40  O         41.6840   83.8360   46.7070 O.2    77  ALA77      -0.2715
     41  CB        44.1260   81.5380   46.6140 C.3    77  ALA77       0.0334
     42  N         41.9320   82.7700   44.7110 N.am   78  GLY78      -0.1955
     43  CA        40.5300   82.8400   44.3450 C.3    78  GLY78       0.1869
     44  C         39.9050   81.5380   44.8520 C.2    78  GLY78       0.2309
     45  O         40.3730   80.4330   44.5050 O.2    78  GLY78      -0.2863
     46  N         46.8590   83.7230   34.6060 N.3   150  ALA150     -0.1231
     47  CA        45.7160   84.5960   34.3640 C.3   150  ALA150      0.1694
     48  C         44.9200   84.8460   35.6410 C.2   150  ALA150      0.2592
     49  O         44.7780   83.9520   36.4930 O.2   150  ALA150     -0.2718
     50  CB        44.7880   83.9920   33.2750 C.3   150  ALA150      0.0304
     51  N         44.4230   86.0740   35.7920 N.am  151  PHE151     -0.1962
     52  CA        43.6000   86.3740   36.9590 C.3   151  PHE151      0.1771
     53  C         42.1950   85.9090   36.5950 C.2   151  PHE151      0.2619
     54  O         41.6370   86.3320   35.5680 O.2   151  PHE151     -0.2715
     55  CB        43.5960   87.8690   37.2640 C.3   151  PHE151      0.0574
     56  CG        42.7720   88.2270   38.4680 C.ar  151  PHE151     -0.0200
     57  CD1       41.4690   88.7380   38.3220 C.ar  151  PHE151     -0.0042
     58  CD2       43.2800   88.0340   39.7470 C.ar  151  PHE151     -0.0042
     59  CE1       40.6950   89.0500   39.4490 C.ar  151  PHE151     -0.0003
     60  CE2       42.5030   88.3450   40.8820 C.ar  151  PHE151     -0.0003
     61  CZ        41.2110   88.8520   40.7270 C.ar  151  PHE151     -0.0000
     62  N         41.6100   85.0630   37.4360 N.am  152  ILE152     -0.1977
     63  CA        40.3000   84.5270   37.1150 C.3   152  ILE152      0.1596
     64  C         39.1460   85.3510   37.6530 C.2   152  ILE152      0.2287
     65  O         39.0870   85.6820   38.8450 O.2   152  ILE152     -0.2864
     66  CB        40.1600   83.0560   37.6080 C.3   152  ILE152      0.0276
     67  CG1       41.3440   82.2120   37.0960 C.3   152  ILE152      0.0022
     68  CG2       38.8210   82.4550   37.1280 C.3   152  ILE152      0.0022
     69  CD1       42.6630   82.4650   37.6710 C.3   152  ILE152      0.0001
     70  N         42.1870   78.9140   43.0430 N.3   171  VAL171     -0.1231
     71  CA        42.9890   79.2120   41.8800 C.3   171  VAL171      0.1692
     72  C         43.8480   80.4450   42.1250 C.2   171  VAL171      0.2592
     73  O         43.4170   81.4130   42.7610 O.2   171  VAL171     -0.2718
     74  CB        42.0980   79.4320   40.6070 C.3   171  VAL171      0.0266
     75  CG1       40.9600   80.4630   40.8970 C.3   171  VAL171      0.0020
     76  CG2       42.9610   79.9220   39.4690 C.3   171  VAL171      0.0020
     77  N         45.0830   80.3800   41.6480 N.am  172  GLU172     -0.1966
     78  CA        45.9920   81.4850   41.7860 C.3   172  GLU172      0.1733
     79  C         47.0720   81.4080   40.6880 C.2   172  GLU172      0.2616
     80  O         46.8770   80.7070   39.6790 O.2   172  GLU172     -0.2715
     81  CB        46.5390   81.5600   43.2400 C.3   172  GLU172      0.0429
     82  CG        47.0900   80.2340   43.8370 C.3   172  GLU172      0.1163
     83  CD        48.2250   79.6740   43.0040 C.2   172  GLU172      0.3649
     84  OE1       47.9490   78.7580   42.2010 O.co2 172  GLU172     -0.2457
     85  OE2       49.3810   80.1630   43.1300 O.co2 172  GLU172     -0.2457
     86  N         48.2010   82.1000   40.8560 N.am  173  MET173     -0.1963
     87  CA        49.1840   82.1800   39.7640 C.3   173  MET173      0.1736
     88  C         50.6510   81.7670   39.9530 C.2   173  MET173      0.2616
     89  O         51.4790   81.9660   39.0270 O.2   173  MET173     -0.2715
     90  CB        49.1430   83.6170   39.2170 C.3   173  MET173      0.0427
     91  CG        47.7530   84.0450   38.6670 C.3   173  MET173      0.0599
     92  SD        47.6020   85.8380   38.3120 S.3   173  MET173     -0.1393
     93  CE        48.7720   85.9830   36.9080 C.3   173  MET173      0.0692
     94  N         50.9880   81.2040   41.1120 N.am  174  GLU174     -0.1977
     95  CA        52.3860   80.8180   41.3690 C.3   174  GLU174      0.1602
     96  C         52.6250   79.4340   41.9860 C.2   174  GLU174      0.2287
     97  O         53.6750   78.8200   41.7620 O.2   174  GLU174     -0.2864
     98  CB        53.0510   81.8410   42.3030 C.3   174  GLU174      0.0415
     99  CG        53.1090   83.2970   41.7640 C.3   174  GLU174      0.1163
    100  CD        51.8500   84.0860   42.0680 C.2   174  GLU174      0.3649
    101  OE1       51.5260   85.0250   41.3050 O.co2 174  GLU174     -0.2457
    102  OE2       51.1850   83.7670   43.0750 O.co2 174  GLU174     -0.2457
    103  N         47.4100   79.4930   51.5890 N.3   193  ARG193     -0.1245
    104  CA        46.8970   80.7860   51.1550 C.3   193  ARG193      0.1563
    105  C         45.5390   81.1150   51.7720 C.2   193  ARG193      0.2260
    106  O         44.8910   80.2590   52.3620 O.2   193  ARG193     -0.2867
    107  CB        46.8160   80.8290   49.6130 C.3   193  ARG193      0.0307
    108  CG        48.2090   80.9910   48.9060 C.3   193  ARG193      0.0489
    109  CD        48.1080   80.6810   47.4160 C.3   193  ARG193      0.2205
    110  NE        49.3760   80.7420   46.6900 N.pl3 193  ARG193     -0.0865
    111  CZ        49.7830   81.8040   46.0120 C.cat 193  ARG193      0.5346
    112  NH1       49.0160   82.8990   45.9850 N.pl3 193  ARG193      0.1354
    113  NH2       50.9180   81.7620   45.3250 N.pl3 193  ARG193      0.1354
    114  N         40.9100   85.8860   48.8450 N.3   196  SER196     -0.1202
    115  CA        40.7080   87.3200   48.6450 C.3   196  SER196      0.2020
    116  C         39.4400   87.5940   47.8180 C.2   196  SER196      0.2618
    117  O         38.9510   88.7320   47.7680 O.2   196  SER196     -0.2717
    118  CB        41.9080   87.9320   47.9180 C.3   196  SER196      0.2103
    119  OG        42.1660   87.2770   46.6800 O.3   196  SER196     -0.2182
    120  N         38.9250   86.5490   47.1670 N.am  197  ASP197     -0.1973
    121  CA        37.7520   86.6500   46.2970 C.3   197  ASP197      0.1709
    122  C         37.3280   85.2330   45.8990 C.2   197  ASP197      0.2293
    123  O         38.0240   84.2710   46.2330 O.2   197  ASP197     -0.2864
    124  CB        38.1290   87.4160   45.0380 C.3   197  ASP197      0.1436
    125  CG        39.2890   86.7500   44.2780 C.2   197  ASP197      0.3671
    126  OD1       40.4610   87.0290   44.6070 O.co2 197  ASP197     -0.2456
    127  OD2       39.0200   85.9330   43.3650 O.co2 197  ASP197     -0.2456
    128  N         36.8520   84.1710   42.5910 N.3   199  ALA199     -0.1245
    129  CA        37.1210   83.9780   41.1640 C.3   199  ALA199      0.1562
    130  C         35.9730   84.2030   40.1740 C.2   199  ALA199      0.2260
    131  O         36.0120   83.6750   39.0580 O.2   199  ALA199     -0.2867
    132  CB        37.7060   82.5530   40.9600 C.3   199  ALA199      0.0290
    133  N         39.0800   91.2860   45.2290 N.3   207  PHE207     -0.1241
    134  CA        40.5290   91.2360   45.4100 C.3   207  PHE207      0.1605
    135  C         41.0530   92.5970   45.8610 C.2   207  PHE207      0.2264
    136  O         41.8320   92.6750   46.8040 O.2   207  PHE207     -0.2867
    137  CB        41.1910   90.8300   44.0950 C.3   207  PHE207      0.0534
    138  CG        42.6870   90.7830   44.1440 C.ar  207  PHE207     -0.0203
    139  CD1       43.3520   89.5960   44.4710 C.ar  207  PHE207     -0.0042
    140  CD2       43.4350   91.9150   43.8330 C.ar  207  PHE207     -0.0042
    141  CE1       44.7450   89.5340   44.4840 C.ar  207  PHE207     -0.0003
    142  CE2       44.8270   91.8780   43.8410 C.ar  207  PHE207     -0.0003
    143  CZ        45.4900   90.6790   44.1680 C.ar  207  PHE207     -0.0000
@<TRIPOS>BOND
     1    50    47    1
     2    47    46    1
     3    47    48    1
     4    54    53    2
     5    48    51   am
     6    48    49    2
     7    51    52    1
     8    53    52    1
     9    53    62   am
    10    93    92    1
    11    52    55    1
    12    67    66    1
    13    67    69    1
    14    63    62    1
    15    63    66    1
    16    63    64    1
    17    68    66    1
    18    55    56    1
    19    64    65    2
    20    26    25    2
    21    92    91    1
    22    57    56   ar
    23    57    59   ar
    24    56    58   ar
    25    91    90    1
    26    25    24    1
    27    29    27    1
    28    89    88    2
    29   131   130    2
    30    90    87    1
    31    59    61   ar
    32    76    74    1
    33    27    24    1
    34    27    28    1
    35    80    79    2
    36    58    60   ar
    37    87    88    1
    38    87    86    1
    39    24    23    1
    40    88    94   am
    41   130   129    1
    42    74    75    1
    43    74    71    1
    44    79    86   am
    45    79    78    1
    46    61    60   ar
    47    30    28    1
    48   132   129    1
    49    94    95    1
    50   129   128    1
    51   101   100   ar
    52    95    96    1
    53    95    98    1
    54    77    78    1
    55    77    72   am
    56    97    96    2
    57    99   100    1
    58    99    98    1
    59    78    81    1
    60    71    72    1
    61    71    70    1
    62   100   102   ar
    63    72    73    2
    64    84    83   ar
    65    83    85   ar
    66    83    82    1
    67    81    82    1
    68   127   125   ar
    69   140   142   ar
    70   140   138   ar
    71   142   143   ar
    72   137   138    1
    73   137   134    1
    74   138   139   ar
    75   143   141   ar
    76     5     2    1
    77   125   126   ar
    78   125   124    1
    79    43    42    1
    80    43    44    1
    81    12    11    1
    82    12    13    1
    83   139   141   ar
    84    45    44    2
    85    11    10    1
    86     4     3    2
    87    42    39   am
    88   124   121    1
    89     2     3    1
    90     2     1    1
    91   133   134    1
    92     3     6   am
    93   113   111    1
    94   134   135    1
    95   135   136    2
    96    39    38    1
    97    39    40    2
    98   122   123    2
    99   122   121    1
   100    10     7    1
   101   112   111    1
   102     6     7    1
   103   111   110    2
   104     7     8    1
   105    38    41    1
   106    38    37    1
   107   121   120    1
   108    34    33    2
   109   119   118    1
   110   110   109    1
   111    36    35    1
   112    21    20   ar
   113    37    33   am
   114   120   116   am
   115    22    20   ar
   116    33    32    1
   117   109   108    1
   118     8     9    2
   119    20    19    1
   120   117   116    2
   121   116   115    1
   122   118   115    1
   123    35    32    1
   124    32    31    1
   125   115   114    1
   126   108   107    1
   127    19    18    1
   128   107   104    1
   129    18    15    1
   130    14    15    1
   131    15    16    1
   132   104   103    1
   133   104   105    1
   134    16    17    2
   135   105   106    2
