@<TRIPOS>MOLECULE
tmp/1nc2D01.pdb
 96 96 0 0 0
SMALL
GASTEIGER

@<TRIPOS>ATOM
      1  N         49.8380   27.8700   16.9070 N.3    35  HIS35      -0.1241
      2  CA        49.4130   26.7560   16.0700 C.3    35  HIS35       0.1621
      3  C         49.2590   27.1400   14.6320 C.2    35  HIS35       0.2264
      4  O         49.0030   28.3020   14.3030 O.2    35  HIS35      -0.2867
      5  CB        48.0480   26.2370   16.5130 C.3    35  HIS35       0.0745
      6  CG        48.0120   25.7460   17.9170 C.ar   35  HIS35       0.0817
      7  ND1       47.9150   24.4110   18.2340 N.ar   35  HIS35      -0.2268
      8  CD2       48.0380   26.4160   19.0910 C.ar   35  HIS35       0.1154
      9  CE1       47.8740   24.2780   19.5490 C.ar   35  HIS35       0.1986
     10  NE2       47.9490   25.4820   20.0900 N.ar   35  HIS35      -0.2212
     11  N         44.5020   20.5940   11.5510 N.3    47  TRP47      -0.1241
     12  CA        45.6280   21.0310   12.3880 C.3    47  TRP47       0.1605
     13  C         46.8960   20.4410   11.7860 C.2    47  TRP47       0.2264
     14  O         46.9080   19.2750   11.4070 O.2    47  TRP47      -0.2867
     15  CB        45.4330   20.5620   13.8280 C.3    47  TRP47       0.0550
     16  CG        46.4390   21.0800   14.8190 C.ar   47  TRP47       0.0003
     17  CD1       46.3680   22.2430   15.5430 C.ar   47  TRP47       0.0946
     18  CD2       47.5970   20.3810   15.2920 C.ar   47  TRP47       0.0152
     19  NE1       47.3960   22.2950   16.4560 N.ar   47  TRP47      -0.2442
     20  CE2       48.1650   21.1660   16.3240 C.ar   47  TRP47       0.0810
     21  CE3       48.2050   19.1470   14.9520 C.ar   47  TRP47       0.0012
     22  CZ2       49.3150   20.7600   17.0300 C.ar   47  TRP47       0.0191
     23  CZ3       49.3530   18.7420   15.6500 C.ar   47  TRP47       0.0001
     24  CH2       49.8960   19.5510   16.6830 C.ar   47  TRP47       0.0015
     25  N         52.3230   23.0450   15.8880 N.3    50  VAL50      -0.1245
     26  CA        52.3960   24.1160   16.8820 C.3    50  VAL50       0.1561
     27  C         53.8020   24.2690   17.4220 C.2    50  VAL50       0.2260
     28  O         54.5790   23.3090   17.4060 O.2    50  VAL50      -0.2867
     29  CB        51.4540   23.7810   18.1380 C.3    50  VAL50       0.0252
     30  CG1       51.8940   22.4550   18.8420 C.3    50  VAL50       0.0019
     31  CG2       51.4380   24.9000   19.1550 C.3    50  VAL50       0.0019
     32  N         55.0590   25.6240   20.9590 N.3    52  TRP52      -0.1227
     33  CA        54.6820   26.0650   22.2890 C.3    52  TRP52       0.1737
     34  C         55.5630   27.2080   22.8090 C.2    52  TRP52       0.2596
     35  O         56.6110   27.5230   22.2240 O.2    52  TRP52      -0.2718
     36  CB        54.6620   24.8780   23.2670 C.3    52  TRP52       0.0564
     37  CG        53.6000   23.8520   22.9280 C.ar   52  TRP52       0.0003
     38  CD1       52.2590   24.0750   22.7930 C.ar   52  TRP52       0.0946
     39  CD2       53.7980   22.4510   22.6920 C.ar   52  TRP52       0.0152
     40  NE1       51.6110   22.9050   22.4900 N.ar   52  TRP52      -0.2442
     41  CE2       52.5260   21.8910   22.4190 C.ar   52  TRP52       0.0810
     42  CE3       54.9320   21.6080   22.6860 C.ar   52  TRP52       0.0012
     43  CZ2       52.3420   20.5150   22.1350 C.ar   52  TRP52       0.0191
     44  CZ3       54.7580   20.2280   22.4030 C.ar   52  TRP52       0.0001
     45  CH2       53.4600   19.7020   22.1300 C.ar   52  TRP52       0.0015
     46  N         55.0620   27.8730   23.8480 N.am   53  SER53      -0.1938
     47  CA        55.7430   28.9890   24.5050 C.3    53  SER53       0.2055
     48  C         57.1780   28.6280   24.8870 C.2    53  SER53       0.2643
     49  O         58.1010   29.4060   24.6330 O.2    53  SER53      -0.2714
     50  CB        54.9470   29.4490   25.7430 C.3    53  SER53       0.2130
     51  OG        54.7750   28.4360   26.7300 O.3    53  SER53      -0.2179
     52  N         57.3380   27.4120   25.4210 N.am   54  GLY54      -0.1954
     53  CA        58.6350   26.8730   25.8140 C.3    54  GLY54       0.1869
     54  C         59.5250   26.5000   24.6260 C.2    54  GLY54       0.2309
     55  O         60.6820   26.1220   24.8080 O.2    54  GLY54      -0.2863
     56  N         47.3900   30.2420   21.5970 N.3    98  ARG98      -0.1231
     57  CA        46.7730   29.4080   22.6330 C.3    98  ARG98       0.1694
     58  C         47.7260   29.4140   23.8040 C.2    98  ARG98       0.2593
     59  O         48.8980   29.0470   23.6610 O.2    98  ARG98      -0.2718
     60  CB        46.5350   27.9670   22.1590 C.3    98  ARG98       0.0321
     61  CG        45.7670   27.1150   23.1750 C.3    98  ARG98       0.0489
     62  CD        45.0740   25.9380   22.5190 C.3    98  ARG98       0.2205
     63  NE        44.1920   25.2260   23.4450 N.pl3  98  ARG98      -0.0865
     64  CZ        44.6080   24.3620   24.3710 C.cat  98  ARG98       0.5346
     65  NH1       45.8910   24.0780   24.4900 N.pl3  98  ARG98       0.1354
     66  NH2       43.7320   23.8030   25.2060 N.pl3  98  ARG98       0.1354
     67  N         47.2190   29.9000   24.9410 N.am   99  GLY99      -0.1942
     68  CA        48.0120   29.9910   26.1450 C.3    99  GLY99       0.2014
     69  C         47.9380   28.7630   27.0100 C.2    99  GLY99       0.2640
     70  O         47.4380   27.7160   26.5940 O.2    99  GLY99      -0.2714
     71  N         48.5510   28.8960   28.1820 N.am  100  SER100     -0.1935
     72  CA        48.5770   27.8690   29.2030 C.3   100  SER100      0.2055
     73  C         47.3270   28.1250   30.0480 C.2   100  SER100      0.2643
     74  O         46.7480   29.2070   29.9620 O.2   100  SER100     -0.2714
     75  CB        49.8200   28.0540   30.0860 C.3   100  SER100      0.2130
     76  OG        51.0180   27.9060   29.3450 O.3   100  SER100     -0.2179
     77  N         46.9120   27.1330   30.8440 N.am  101  TYR101     -0.1973
     78  CA        45.7630   27.2370   31.7570 C.3   101  TYR101      0.1639
     79  C         45.9250   28.5200   32.6000 C.2   101  TYR101      0.2290
     80  O         47.0090   28.7610   33.1300 O.2   101  TYR101     -0.2864
     81  CB        45.7060   25.9830   32.6710 C.3   101  TYR101      0.0560
     82  CG        44.6040   26.0190   33.7300 C.ar  101  TYR101     -0.0198
     83  CD1       43.2770   25.6630   33.4100 C.ar  101  TYR101     -0.0009
     84  CD2       44.8650   26.4960   35.0410 C.ar  101  TYR101     -0.0009
     85  CE1       42.2250   25.7910   34.3730 C.ar  101  TYR101      0.0417
     86  CE2       43.8240   26.6290   36.0010 C.ar  101  TYR101      0.0417
     87  CZ        42.5110   26.2740   35.6550 C.ar  101  TYR101      0.1957
     88  OH        41.4980   26.4050   36.5810 O.3   101  TYR101     -0.2866
     89  N         44.0400   28.4640   28.0940 N.3   104  ASN104     -0.1240
     90  CA        44.2100   27.3410   27.1740 C.3   104  ASN104      0.1653
     91  C         43.0510   27.1520   26.1900 C.2   104  ASN104      0.2266
     92  O         42.3210   26.1750   26.2530 O.2   104  ASN104     -0.2867
     93  CB        44.5630   26.0430   27.9380 C.3   104  ASN104      0.1155
     94  CG        43.5490   25.6900   29.0340 C.2   104  ASN104      0.2627
     95  OD1       42.9450   26.5730   29.6380 O.2   104  ASN104     -0.2716
     96  ND2       43.3740   24.3940   29.2910 N.am  104  ASN104     -0.0877
@<TRIPOS>BOND
     1    14    13    2
     2    11    12    1
     3    13    12    1
     4    12    15    1
     5    15    16    1
     6     4     3    2
     7     3     2    1
     8    16    18   ar
     9    16    17   ar
    10    21    18   ar
    11    21    23   ar
    12    18    20   ar
    13    17    19   ar
    14    23    24   ar
    15    25    26    1
    16     2     5    1
    17     2     1    1
    18    20    19   ar
    19    20    22   ar
    20     5     6    1
    21    24    22   ar
    22    26    27    1
    23    26    29    1
    24    28    27    2
    25     6     7   ar
    26     6     8   ar
    27    29    30    1
    28    29    31    1
    29     7     9   ar
    30     8    10   ar
    31     9    10   ar
    32    32    33    1
    33    56    57    1
    34    45    43   ar
    35    45    44   ar
    36    43    41   ar
    37    60    57    1
    38    60    61    1
    39    35    34    2
    40    33    34    1
    41    33    36    1
    42    44    42   ar
    43    41    40   ar
    44    41    39   ar
    45    40    38   ar
    46    62    61    1
    47    62    63    1
    48    57    58    1
    49    42    39   ar
    50    39    37   ar
    51    38    37   ar
    52    34    46   am
    53    37    36    1
    54    63    64    2
    55    59    58    2
    56    58    67   am
    57    46    47    1
    58    64    65    1
    59    64    66    1
    60    47    48    1
    61    47    50    1
    62    54    55    2
    63    54    53    1
    64    49    48    2
    65    48    52   am
    66    67    68    1
    67    52    53    1
    68    50    51    1
    69    68    69    1
    70    91    92    2
    71    91    90    1
    72    70    69    2
    73    69    71   am
    74    90    93    1
    75    90    89    1
    76    93    94    1
    77    71    72    1
    78    94    96   am
    79    94    95    2
    80    72    73    1
    81    72    75    1
    82    76    75    1
    83    74    73    2
    84    73    77   am
    85    77    78    1
    86    78    79    1
    87    78    81    1
    88    79    80    2
    89    81    82    1
    90    83    82   ar
    91    83    85   ar
    92    82    84   ar
    93    85    87   ar
    94    84    86   ar
    95    87    86   ar
    96    87    88    1
