@<TRIPOS>MOLECULE
tmp/1nc3A00.pdb
 134 127 0 0 0
SMALL
GASTEIGER

@<TRIPOS>ATOM
      1  N         64.4700   38.6970   24.8310 N.3    11  ALA11      -0.1231
      2  CA        63.5940   37.9050   25.6920 C.3    11  ALA11       0.1694
      3  C         63.6350   36.4050   25.4460 C.2    11  ALA11       0.2591
      4  O         63.5800   35.6130   26.4000 O.2    11  ALA11      -0.2718
      5  CB        62.1680   38.3900   25.5590 C.3    11  ALA11       0.0304
      6  N         63.7360   36.0050   24.1820 N.am   12  MET12      -0.1979
      7  CA        63.7330   34.5820   23.8620 C.3    12  MET12       0.1605
      8  C         65.0220   33.9460   23.3270 C.2    12  MET12       0.2287
      9  O         65.7700   34.5390   22.5520 O.2    12  MET12      -0.2864
     10  CB        62.6260   34.2800   22.8540 C.3    12  MET12       0.0413
     11  CG        61.2310   34.7090   23.2680 C.3    12  MET12       0.0598
     12  SD        60.1360   34.2430   21.9330 S.3    12  MET12      -0.1393
     13  CE        60.5050   32.4270   21.8250 C.3    12  MET12       0.0692
     14  N         59.8960   36.7970   28.9930 N.3    53  ILE53      -0.1245
     15  CA        58.9100   37.4780   28.1860 C.3    53  ILE53       0.1561
     16  C         58.0350   38.3720   29.0680 C.2    53  ILE53       0.2260
     17  O         57.6590   37.9840   30.1850 O.2    53  ILE53      -0.2867
     18  CB        58.0470   36.4140   27.4710 C.3    53  ILE53       0.0252
     19  CG1       58.9190   35.7280   26.3990 C.3    53  ILE53       0.0019
     20  CG2       56.7650   37.0250   26.9370 C.3    53  ILE53       0.0019
     21  CD1       58.2660   34.5520   25.6980 C.3    53  ILE53       0.0001
     22  N         61.8130   39.7780   18.2910 N.3    79  SER79      -0.1202
     23  CA        60.7730   39.8670   17.2740 C.3    79  SER79       0.2020
     24  C         59.7740   40.9580   17.6160 C.2    79  SER79       0.2619
     25  O         59.9250   41.6620   18.6140 O.2    79  SER79      -0.2717
     26  CB        60.0450   38.5260   17.1010 C.3    79  SER79       0.2103
     27  OG        59.2270   38.1940   18.2150 O.3    79  SER79      -0.2182
     28  N         58.7760   41.1150   16.7560 N.am   80  ALA80      -0.1965
     29  CA        57.7230   42.0930   16.9610 C.3    80  ALA80       0.1728
     30  C         56.6810   41.8830   15.8970 C.2    80  ALA80       0.2616
     31  O         56.9650   41.2870   14.8690 O.2    80  ALA80      -0.2715
     32  CB        58.2620   43.5040   16.8520 C.3    80  ALA80       0.0334
     33  N         55.4780   42.3850   16.1480 N.am   81  GLY81      -0.1955
     34  CA        54.4160   42.2740   15.1840 C.3    81  GLY81       0.1869
     35  C         54.4740   43.5690   14.4180 C.2    81  GLY81       0.2309
     36  O         54.4380   44.6220   15.0400 O.2    81  GLY81      -0.2863
     37  N         50.5960   41.3420   26.3480 N.3   153  ALA153     -0.1231
     38  CA        49.7310   40.4660   25.5490 C.3   153  ALA153      0.1694
     39  C         50.2720   40.2070   24.1430 C.2   153  ALA153      0.2592
     40  O         50.8010   41.1140   23.4900 O.2   153  ALA153     -0.2718
     41  CB        48.3120   41.0670   25.4600 C.3   153  ALA153      0.0304
     42  N         50.1500   38.9660   23.6810 N.am  154  PHE154     -0.1962
     43  CA        50.5750   38.6430   22.3310 C.3   154  PHE154      0.1771
     44  C         49.4280   39.0530   21.4250 C.2   154  PHE154      0.2619
     45  O         48.3750   38.4350   21.4440 O.2   154  PHE154     -0.2715
     46  CB        50.8420   37.1610   22.1690 C.3   154  PHE154      0.0574
     47  CG        51.2960   36.7920   20.7820 C.ar  154  PHE154     -0.0200
     48  CD1       50.3880   36.3060   19.8410 C.ar  154  PHE154     -0.0042
     49  CD2       52.6150   36.9710   20.4030 C.ar  154  PHE154     -0.0042
     50  CE1       50.7890   36.0120   18.5500 C.ar  154  PHE154     -0.0003
     51  CE2       53.0290   36.6770   19.1060 C.ar  154  PHE154     -0.0003
     52  CZ        52.1110   36.1980   18.1790 C.ar  154  PHE154     -0.0000
     53  N         49.6350   40.1050   20.6400 N.am  155  ILE155     -0.1977
     54  CA        48.5930   40.6310   19.7620 C.3   155  ILE155      0.1596
     55  C         48.3410   39.6820   18.5930 C.2   155  ILE155      0.2287
     56  O         49.2660   39.3130   17.8550 O.2   155  ILE155     -0.2864
     57  CB        48.9980   42.0120   19.2660 C.3   155  ILE155      0.0276
     58  CG1       49.5090   42.8320   20.4590 C.3   155  ILE155      0.0022
     59  CG2       47.8150   42.6990   18.5850 C.3   155  ILE155      0.0022
     60  CD1       48.4810   43.0180   21.5570 C.3   155  ILE155      0.0001
     61  N         54.4930   46.1650   17.5040 N.3   174  VAL174     -0.1231
     62  CA        54.0430   45.8440   18.8420 C.3   174  VAL174      0.1692
     63  C         54.7610   44.5970   19.3160 C.2   174  VAL174      0.2592
     64  O         54.9750   43.6410   18.5610 O.2   174  VAL174     -0.2718
     65  CB        52.5040   45.5900   18.8990 C.3   174  VAL174      0.0266
     66  CG1       52.1070   44.5220   17.8540 C.3   174  VAL174      0.0020
     67  CG2       52.0930   45.1450   20.3220 C.3   174  VAL174      0.0020
     68  N         55.1680   44.6160   20.5720 N.am  175  GLU175     -0.1966
     69  CA        55.8380   43.4730   21.1450 C.3   175  GLU175      0.1733
     70  C         55.6340   43.5280   22.6630 C.2   175  GLU175      0.2619
     71  O         54.6790   44.1640   23.1160 O.2   175  GLU175     -0.2715
     72  CB        57.3040   43.4540   20.7010 C.3   175  GLU175      0.0429
     73  CG        57.9180   44.8200   20.6700 C.3   175  GLU175      0.1163
     74  CD        58.0850   45.3510   22.0780 C.2   175  GLU175      0.3649
     75  OE1       57.3860   46.3330   22.4510 O.co2 175  GLU175     -0.2457
     76  OE2       58.9180   44.7580   22.8040 O.co2 175  GLU175     -0.2457
     77  N         56.4990   42.9000   23.4530 N.am  176  MET176     -0.1917
     78  CA        56.2520   42.8420   24.9050 C.3   176  MET176      0.1952
     79  C         57.3320   43.2550   25.9110 C.2   176  MET176      0.2658
     80  O         57.1270   43.0510   27.1260 O.2   176  MET176     -0.2711
     81  CB        55.7830   41.4150   25.2610 C.2   176  MET176      0.0110
     82  CG        54.5700   40.8900   24.4490 C.2   176  MET176      0.0285
     83  SD        54.1360   39.1270   24.6960 S.3   176  MET176     -0.1125
     84  CE        53.8720   39.0300   26.4980 C.3   176  MET176      0.0742
     85  N         58.4620   43.8180   25.4590 N.am  177  GLU177     -0.1974
     86  CA        59.5120   44.2110   26.4110 C.3   177  GLU177      0.1602
     87  C         60.1010   45.6120   26.2470 C.2   177  GLU177      0.2287
     88  O         60.5220   46.2500   27.2250 O.2   177  GLU177     -0.2864
     89  CB        60.6710   43.1880   26.3730 C.3   177  GLU177      0.0415
     90  CG        60.2750   41.7540   26.7420 C.3   177  GLU177      0.1163
     91  CD        59.7400   40.9580   25.5520 C.2   177  GLU177      0.3649
     92  OE1       58.9790   39.9960   25.7690 O.co2 177  GLU177     -0.2457
     93  OE2       60.0820   41.2940   24.3930 O.co2 177  GLU177     -0.2457
     94  N         64.3000   45.5340   16.3310 N.3   196  ARG196     -0.1245
     95  CA        63.6820   44.2240   16.2150 C.3   196  ARG196      0.1563
     96  C         63.3510   43.8520   14.7680 C.2   196  ARG196      0.2260
     97  O         63.3590   44.6970   13.8850 O.2   196  ARG196     -0.2867
     98  CB        62.4200   44.1870   17.0810 C.3   196  ARG196      0.0307
     99  CG        62.7150   44.0340   18.5910 C.3   196  ARG196      0.0489
    100  CD        61.4910   44.3830   19.4540 C.3   196  ARG196      0.2205
    101  NE        61.7460   44.3310   20.8980 N.pl3 196  ARG196     -0.0865
    102  CZ        61.3940   43.3230   21.6780 C.cat 196  ARG196      0.5346
    103  NH1       60.7740   42.2770   21.1630 N.pl3 196  ARG196      0.1354
    104  NH2       61.6760   43.3490   22.9750 N.pl3 196  ARG196      0.1354
    105  N         58.2300   39.3350   12.8020 N.3   199  SER199     -0.1202
    106  CA        57.9340   37.9160   12.7980 C.3   199  SER199      0.2020
    107  C         56.4550   37.6650   12.4450 C.2   199  SER199      0.2618
    108  O         56.0670   36.5350   12.2040 O.2   199  SER199     -0.2717
    109  CB        58.2120   37.3190   14.1770 C.3   199  SER199      0.2103
    110  OG        57.2660   37.8170   15.1170 O.3   199  SER199     -0.2182
    111  N         55.6330   38.7090   12.4150 N.am  200  ASP200     -0.1973
    112  CA        54.2000   38.5510   12.1440 C.3   200  ASP200      0.1709
    113  C         53.6350   39.9540   12.0500 C.2   200  ASP200      0.2293
    114  O         54.3010   40.9110   12.3980 O.2   200  ASP200     -0.2864
    115  CB        53.5240   37.8310   13.3220 C.3   200  ASP200      0.1436
    116  CG        53.7150   38.5870   14.6450 C.2   200  ASP200      0.3671
    117  OD1       52.9510   39.5310   14.9310 O.co2 200  ASP200     -0.2456
    118  OD2       54.6770   38.2640   15.3780 O.co2 200  ASP200     -0.2456
    119  N         50.8360   40.7550   13.6110 N.3   202  ALA202     -0.1245
    120  CA        49.8990   40.7740   14.7270 C.3   202  ALA202      0.1562
    121  C         48.4100   40.6520   14.3880 C.2   202  ALA202      0.2260
    122  O         47.5820   41.2350   15.0780 O.2   202  ALA202     -0.2867
    123  CB        50.1220   42.0400   15.5290 C.3   202  ALA202      0.0290
    124  N         54.3380   33.7000   13.6590 N.3   210  PHE210     -0.1241
    125  CA        55.3670   33.7760   14.6830 C.3   210  PHE210      0.1605
    126  C         56.0800   32.4400   14.7220 C.2   210  PHE210      0.2264
    127  O         57.3050   32.3870   14.6730 O.2   210  PHE210     -0.2867
    128  CB        54.7470   34.0320   16.0480 C.3   210  PHE210      0.0534
    129  CG        55.7500   34.2090   17.1470 C.ar  210  PHE210     -0.0203
    130  CD1       56.3280   35.4650   17.3880 C.ar  210  PHE210     -0.0042
    131  CD2       56.0900   33.1360   17.9790 C.ar  210  PHE210     -0.0042
    132  CE1       57.2270   35.6540   18.4590 C.ar  210  PHE210     -0.0003
    133  CE2       56.9880   33.3110   19.0540 C.ar  210  PHE210     -0.0003
    134  CZ        57.5570   34.5820   19.2960 C.ar  210  PHE210     -0.0000
@<TRIPOS>BOND
     1   113   112    1
     2   113   114    2
     3   112   111    1
     4   112   115    1
     5   108   107    2
     6   111   107   am
     7   107   106    1
     8   106   105    1
     9   106   109    1
    10   115   116    1
    11   119   120    1
    12   124   125    1
    13    97    96    2
    14   109   110    1
    15   121   120    1
    16   121   122    2
    17    35    36    2
    18    35    34    1
    19   116   117   ar
    20   116   118   ar
    21   127   126    2
    22   125   126    1
    23   125   128    1
    24   120   123    1
    25    96    95    1
    26    31    30    2
    27    34    33    1
    28    30    33   am
    29    30    29    1
    30   128   129    1
    31    95    94    1
    32    95    98    1
    33    28    29    1
    34    28    24   am
    35    32    29    1
    36    98    99    1
    37    26    23    1
    38    26    27    1
    39   129   130   ar
    40   129   131   ar
    41    23    24    1
    42    23    22    1
    43   130   132   ar
    44    61    62    1
    45    24    25    2
    46    66    65    1
    47    56    55    2
    48   131   133   ar
    49    52    50   ar
    50    52    51   ar
    51   132   134   ar
    52    50    48   ar
    53    64    63    2
    54    59    57    1
    55    99   100    1
    56    55    54    1
    57    62    65    1
    58    62    63    1
    59    65    67    1
    60   133   134   ar
    61    51    49   ar
    62    57    54    1
    63    57    58    1
    64    63    68   am
    65   100   101    1
    66    54    53    1
    67    48    47   ar
    68    49    47   ar
    69    58    60    1
    70    68    69    1
    71    53    44   am
    72    73    72    1
    73    73    74    1
    74    72    69    1
    75    47    46    1
    76   101   102    2
    77    69    70    1
    78   103   102    1
    79    44    45    2
    80    44    43    1
    81   102   104    1
    82    13    12    1
    83    12    11    1
    84    74    75   ar
    85    74    76   ar
    86    46    43    1
    87    43    42    1
    88     9     8    2
    89    70    71    2
    90    70    77   am
    91    10    11    1
    92    10     7    1
    93     8     7    1
    94    77    78    1
    95    40    39    2
    96    42    39   am
    97     7     6    1
    98    39    38    1
    99     6     3   am
   100    93    91   ar
   101    82    83    1
   102    82    81    2
   103    83    84    1
   104     1     2    1
   105    78    81    1
   106    78    79    1
   107     3     2    1
   108     3     4    2
   109    85    79   am
   110    85    86    1
   111    41    38    1
   112    38    37    1
   113    91    92   ar
   114    91    90    1
   115     5     2    1
   116    21    19    1
   117    79    80    2
   118    87    86    1
   119    87    88    2
   120    89    86    1
   121    89    90    1
   122    19    18    1
   123    20    18    1
   124    18    15    1
   125    15    14    1
   126    15    16    1
   127    16    17    2
