@<TRIPOS>MOLECULE
tmp/1nc4D01.pdb
 82 81 0 0 0
SMALL
GASTEIGER

@<TRIPOS>ATOM
      1  N         49.7580   28.1830   17.0790 N.3    35  HIS35      -0.1241
      2  CA        49.3480   27.0700   16.2260 C.3    35  HIS35       0.1621
      3  C         49.2300   27.4360   14.7590 C.2    35  HIS35       0.2264
      4  O         49.0680   28.5990   14.4120 O.2    35  HIS35      -0.2867
      5  CB        47.9900   26.5330   16.6720 C.3    35  HIS35       0.0745
      6  CG        47.9690   26.0470   18.0790 C.ar   35  HIS35       0.0817
      7  ND1       47.8980   24.7110   18.4030 N.ar   35  HIS35      -0.2268
      8  CD2       47.9650   26.7210   19.2500 C.ar   35  HIS35       0.1154
      9  CE1       47.8410   24.5830   19.7170 C.ar   35  HIS35       0.1986
     10  NE2       47.8830   25.7890   20.2530 N.ar   35  HIS35      -0.2212
     11  N         52.2880   23.3350   16.0630 N.3    50  VAL50      -0.1245
     12  CA        52.4000   24.3990   17.0620 C.3    50  VAL50       0.1561
     13  C         53.8030   24.5820   17.6140 C.2    50  VAL50       0.2260
     14  O         54.6040   23.6520   17.5980 O.2    50  VAL50      -0.2867
     15  CB        51.4520   24.0920   18.2980 C.3    50  VAL50       0.0252
     16  CG1       51.8890   22.7870   19.0400 C.3    50  VAL50       0.0019
     17  CG2       51.3810   25.2610   19.2690 C.3    50  VAL50       0.0019
     18  N         55.0390   25.9890   21.1600 N.3    52  TRP52      -0.1227
     19  CA        54.6420   26.4170   22.4830 C.3    52  TRP52       0.1737
     20  C         55.4980   27.5510   23.0030 C.2    52  TRP52       0.2596
     21  O         56.5730   27.8320   22.4560 O.2    52  TRP52      -0.2718
     22  CB        54.6430   25.2340   23.4580 C.3    52  TRP52       0.0564
     23  CG        53.6010   24.2250   23.1200 C.ar   52  TRP52       0.0003
     24  CD1       52.2570   24.4520   22.9520 C.ar   52  TRP52       0.0946
     25  CD2       53.8030   22.8230   22.9010 C.ar   52  TRP52       0.0152
     26  NE1       51.6140   23.2760   22.6440 N.ar   52  TRP52      -0.2442
     27  CE2       52.5350   22.2610   22.6050 C.ar   52  TRP52       0.0810
     28  CE3       54.9370   21.9820   22.9220 C.ar   52  TRP52       0.0012
     29  CZ2       52.3620   20.8890   22.3300 C.ar   52  TRP52       0.0191
     30  CZ3       54.7720   20.6120   22.6490 C.ar   52  TRP52       0.0001
     31  CH2       53.4810   20.0820   22.3560 C.ar   52  TRP52       0.0015
     32  N         55.0000   28.2150   24.0440 N.am   53  SER53      -0.1938
     33  CA        55.7120   29.3410   24.6570 C.3    53  SER53       0.2055
     34  C         57.1680   29.0240   25.0490 C.2    53  SER53       0.2643
     35  O         58.0540   29.8510   24.8520 O.2    53  SER53      -0.2714
     36  CB        54.9230   29.8790   25.8610 C.3    53  SER53       0.2130
     37  OG        54.7590   28.9180   26.8680 O.3    53  SER53      -0.2179
     38  N         57.3900   27.7960   25.5290 N.am   54  GLY54      -0.1954
     39  CA        58.7050   27.3260   25.9300 C.3    54  GLY54       0.1869
     40  C         59.5960   26.8700   24.7830 C.2    54  GLY54       0.2309
     41  O         60.6970   26.3620   25.0280 O.2    54  GLY54      -0.2863
     42  N         47.4500   30.5940   21.6510 N.3    98  ARG98      -0.1231
     43  CA        46.8330   29.7570   22.6830 C.3    98  ARG98       0.1694
     44  C         47.7570   29.7920   23.8850 C.2    98  ARG98       0.2593
     45  O         48.9170   29.3800   23.7890 O.2    98  ARG98      -0.2718
     46  CB        46.5710   28.3140   22.2300 C.3    98  ARG98       0.0321
     47  CG        45.7410   27.5180   23.2430 C.3    98  ARG98       0.0489
     48  CD        45.1190   26.2470   22.6500 C.3    98  ARG98       0.2205
     49  NE        44.2000   25.5800   23.5920 N.pl3  98  ARG98      -0.0865
     50  CZ        44.5660   24.7240   24.5460 C.cat  98  ARG98       0.5346
     51  NH1       45.8450   24.3790   24.7040 N.pl3  98  ARG98       0.1354
     52  NH2       43.6510   24.2550   25.3960 N.pl3  98  ARG98       0.1354
     53  N         47.2390   30.3340   24.9920 N.am   99  GLY99      -0.1942
     54  CA        48.0000   30.4450   26.2210 C.3    99  GLY99       0.2014
     55  C         47.9310   29.2590   27.1480 C.2    99  GLY99       0.2640
     56  O         47.3970   28.2030   26.7960 O.2    99  GLY99      -0.2714
     57  N         48.5500   29.4250   28.3160 N.am  100  SER100     -0.1935
     58  CA        48.5720   28.4010   29.3600 C.3   100  SER100      0.2055
     59  C         47.3580   28.6830   30.2360 C.2   100  SER100      0.2643
     60  O         46.8140   29.7870   30.1680 O.2   100  SER100     -0.2714
     61  CB        49.8600   28.5170   30.1980 C.3   100  SER100      0.2130
     62  OG        51.0150   28.2820   29.4010 O.3   100  SER100     -0.2179
     63  N         46.9310   27.6990   31.0410 N.am  101  TYR101     -0.1973
     64  CA        45.7880   27.8500   31.9570 C.3   101  TYR101      0.1639
     65  C         45.9640   29.1440   32.7780 C.2   101  TYR101      0.2290
     66  O         47.0500   29.3660   33.3260 O.2   101  TYR101     -0.2864
     67  CB        45.6650   26.6210   32.9020 C.3   101  TYR101      0.0560
     68  CG        44.4970   26.7210   33.8840 C.ar  101  TYR101     -0.0198
     69  CD1       43.1910   26.3850   33.4770 C.ar  101  TYR101     -0.0009
     70  CD2       44.6620   27.3020   35.1740 C.ar  101  TYR101     -0.0009
     71  CE1       42.0610   26.6410   34.3140 C.ar  101  TYR101      0.0417
     72  CE2       43.5320   27.5700   36.0200 C.ar  101  TYR101      0.0417
     73  CZ        42.2390   27.2360   35.5700 C.ar  101  TYR101      0.1957
     74  OH        41.1270   27.5290   36.3280 O.3   101  TYR101     -0.2866
     75  N         44.0310   28.9740   28.1430 N.3   104  ASN104     -0.1240
     76  CA        44.1580   27.8030   27.2870 C.3   104  ASN104      0.1653
     77  C         42.9970   27.5540   26.3220 C.2   104  ASN104      0.2266
     78  O         42.2970   26.5450   26.3960 O.2   104  ASN104     -0.2867
     79  CB        44.5090   26.5700   28.1360 C.3   104  ASN104      0.1155
     80  CG        43.4640   26.2540   29.2210 C.2   104  ASN104      0.2627
     81  OD1       42.9020   27.1450   29.8530 O.2   104  ASN104     -0.2716
     82  ND2       43.2060   24.9740   29.4170 N.am  104  ASN104     -0.0877
@<TRIPOS>BOND
     1     4     3    2
     2     3     2    1
     3    11    12    1
     4     2     5    1
     5     2     1    1
     6     5     6    1
     7    12    13    1
     8    12    15    1
     9    14    13    2
    10     6     7   ar
    11     6     8   ar
    12    15    16    1
    13    15    17    1
    14     7     9   ar
    15     8    10   ar
    16     9    10   ar
    17    18    19    1
    18    42    43    1
    19    46    43    1
    20    46    47    1
    21    29    31   ar
    22    29    27   ar
    23    31    30   ar
    24    21    20    2
    25    19    20    1
    26    19    22    1
    27    27    26   ar
    28    27    25   ar
    29    26    24   ar
    30    30    28   ar
    31    48    47    1
    32    48    49    1
    33    43    44    1
    34    25    28   ar
    35    25    23   ar
    36    24    23   ar
    37    20    32   am
    38    23    22    1
    39    49    50    2
    40    45    44    2
    41    44    53   am
    42    32    33    1
    43    50    51    1
    44    50    52    1
    45    33    34    1
    46    33    36    1
    47    40    41    2
    48    40    39    1
    49    35    34    2
    50    53    54    1
    51    34    38   am
    52    38    39    1
    53    36    37    1
    54    54    55    1
    55    77    78    2
    56    77    76    1
    57    56    55    2
    58    55    57   am
    59    76    79    1
    60    76    75    1
    61    79    80    1
    62    57    58    1
    63    80    82   am
    64    80    81    2
    65    58    61    1
    66    58    59    1
    67    62    61    1
    68    60    59    2
    69    59    63   am
    70    63    64    1
    71    64    65    1
    72    64    67    1
    73    65    66    2
    74    67    68    1
    75    69    68   ar
    76    69    71   ar
    77    68    70   ar
    78    71    73   ar
    79    70    72   ar
    80    73    72   ar
    81    73    74    1
