@<TRIPOS>MOLECULE
tmp/1nc6A00.pdb
 173 172 0 0 0
SMALL
GASTEIGER

@<TRIPOS>ATOM
      1  N         47.0470   23.0770   38.3710 N.3    24  PHE24      -0.1227
      2  CA        46.4830   23.7530   39.5360 C.3    24  PHE24       0.1736
      3  C         45.6330   22.8380   40.4170 C.2    24  PHE24       0.2595
      4  O         45.3390   23.1730   41.5620 O.2    24  PHE24      -0.2718
      5  CB        45.6750   24.9820   39.0960 C.3    24  PHE24       0.0547
      6  CG        44.4040   24.6550   38.3590 C.ar   24  PHE24      -0.0202
      7  CD1       43.2350   24.3540   39.0560 C.ar   24  PHE24      -0.0042
      8  CD2       44.3680   24.6670   36.9680 C.ar   24  PHE24      -0.0042
      9  CE1       42.0480   24.0720   38.3750 C.ar   24  PHE24      -0.0003
     10  CE2       43.1870   24.3860   36.2760 C.ar   24  PHE24      -0.0003
     11  CZ        42.0240   24.0890   36.9830 C.ar   24  PHE24      -0.0000
     12  N         45.2510   21.6800   39.8870 N.am   25  CYS25      -0.1970
     13  CA        44.4450   20.7180   40.6410 C.3    25  CYS25       0.1712
     14  C         44.4320   19.3690   39.9540 C.2    25  CYS25       0.2296
     15  O         44.7540   19.2630   38.7730 O.2    25  CYS25      -0.2864
     16  CB        42.9970   21.1880   40.7640 C.3    25  CYS25       0.0983
     17  SG        42.6120   22.3210   42.1360 S.3    25  CYS25      -0.0798
     18  N         36.2060   23.5760   44.8050 N.3    40  HIS40      -0.1226
     19  CA        37.0810   24.7100   45.0730 C.3    40  HIS40       0.1752
     20  C         38.1720   24.8700   44.0180 C.2    40  HIS40       0.2596
     21  O         38.9380   25.8260   44.0530 O.2    40  HIS40      -0.2718
     22  CB        37.6700   24.6400   46.4970 C.3    40  HIS40       0.0759
     23  CG        38.7870   23.6570   46.6690 C.ar   40  HIS40       0.0818
     24  ND1       38.5930   22.3830   47.1590 N.ar   40  HIS40      -0.2268
     25  CD2       40.1200   23.7780   46.4580 C.ar   40  HIS40       0.1154
     26  CE1       39.7560   21.7630   47.2450 C.ar   40  HIS40       0.1986
     27  NE2       40.7000   22.5880   46.8270 N.ar   40  HIS40      -0.2212
     28  N         38.2220   23.9400   43.0670 N.am   41  CYS41      -0.1970
     29  CA        39.1980   24.0030   41.9790 C.3    41  CYS41       0.1712
     30  C         38.5750   24.6790   40.7580 C.2    41  CYS41       0.2296
     31  O         39.2340   24.8620   39.7320 O.2    41  CYS41      -0.2864
     32  CB        39.6520   22.6030   41.5690 C.3    41  CYS41       0.0983
     33  SG        40.7610   21.7190   42.7120 S.3    41  CYS41      -0.0798
     34  N         31.6560   27.6150   49.5580 N.3    78  SER78      -0.1217
     35  CA        33.0590   28.0000   49.4610 C.3    78  SER78       0.1889
     36  C         33.7400   28.3300   50.7850 C.2    78  SER78       0.2288
     37  O         34.9650   28.3430   50.8660 O.2    78  SER78      -0.2866
     38  CB        33.2030   29.1960   48.5120 C.3    78  SER78       0.2089
     39  OG        32.4700   30.3160   48.9790 O.3    78  SER78      -0.2183
     40  N         33.5710   24.4750   52.5850 N.3    81  LEU81      -0.1245
     41  CA        33.9260   23.4370   51.6260 C.3    81  LEU81       0.1561
     42  C         32.9820   22.2390   51.6970 C.2    81  LEU81       0.2260
     43  O         33.3350   21.1340   51.2870 O.2    81  LEU81      -0.2867
     44  CB        35.3800   22.9820   51.8080 C.3    81  LEU81       0.0270
     45  CG        36.4480   24.0350   51.4850 C.3    81  LEU81       0.0019
     46  CD1       37.8100   23.3600   51.3270 C.3    81  LEU81       0.0001
     47  CD2       36.0830   24.7750   50.2130 C.3    81  LEU81       0.0001
     48  N         50.3500   12.2720   54.0170 N.3   171  ASP171     -0.1225
     49  CA        49.0960   12.9880   53.7790 C.3   171  ASP171      0.1805
     50  C         49.0960   13.6160   52.3840 C.2   171  ASP171      0.2598
     51  O         50.0920   13.5330   51.6630 O.2   171  ASP171     -0.2718
     52  CB        48.9720   14.0680   54.8650 C.3   171  ASP171      0.1424
     53  CG        47.6580   14.8190   54.8280 C.2   171  ASP171      0.3668
     54  OD1       46.6720   14.3190   54.2490 O.co2 171  ASP171     -0.2456
     55  OD2       47.6210   15.9210   55.4180 O.co2 171  ASP171     -0.2456
     56  N         47.9700   14.2050   51.9850 N.am  172  SER172     -0.1938
     57  CA        47.9150   14.8900   50.6950 C.3   172  SER172      0.2055
     58  C         48.3120   16.3280   51.0340 C.2   172  SER172      0.2643
     59  O         48.4590   16.6550   52.2130 O.2   172  SER172     -0.2714
     60  CB        46.5080   14.8240   50.0830 C.3   172  SER172      0.2130
     61  OG        45.5020   15.2140   50.9980 O.3   172  SER172     -0.2179
     62  N         48.4950   17.1830   50.0310 N.am  173  CYS173     -0.1953
     63  CA        48.9100   18.5590   50.2980 C.3   173  CYS173      0.1843
     64  C         48.5340   19.4990   49.1440 C.2   173  CYS173      0.2625
     65  O         47.9190   19.0710   48.1640 O.2   173  CYS173     -0.2714
     66  CB        50.4290   18.5750   50.5390 C.3   173  CYS173      0.0997
     67  SG        51.0880   20.0360   51.4020 S.3   173  CYS173     -0.0797
     68  N         48.8970   20.7750   49.2570 N.am  174  GLN174     -0.1963
     69  CA        48.5760   21.7480   48.2130 C.3   174  GLN174      0.1733
     70  C         49.0510   21.3000   46.8340 C.2   174  GLN174      0.2617
     71  O         50.2140   20.9510   46.6480 O.2   174  GLN174     -0.2715
     72  CB        49.1770   23.1180   48.5440 C.3   174  GLN174      0.0408
     73  CG        48.3760   23.9290   49.5610 C.3   174  GLN174      0.0908
     74  CD        48.2980   23.2600   50.9190 C.2   174  GLN174      0.2608
     75  OE1       49.3170   22.8660   51.4860 O.2   174  GLN174     -0.2717
     76  NE2       47.0880   23.1380   51.4550 N.am  174  GLN174     -0.0878
     77  N         48.1410   21.3300   45.8650 N.am  175  GLY175     -0.1940
     78  CA        48.4860   20.9060   44.5220 C.3   175  GLY175      0.2014
     79  C         47.7960   19.5880   44.2620 C.2   175  GLY175      0.2639
     80  O         47.6300   19.1590   43.1180 O.2   175  GLY175     -0.2714
     81  N         47.3900   18.9340   45.3440 N.am  176  ASP176     -0.1957
     82  CA        46.6880   17.6730   45.2190 C.3   176  ASP176      0.1840
     83  C         45.1820   17.8830   45.1370 C.2   176  ASP176      0.2622
     84  O         44.4660   16.9230   44.8110 O.2   176  ASP176     -0.2715
     85  CB        46.9760   16.7330   46.4060 C.3   176  ASP176      0.1450
     86  CG        48.3960   16.1810   46.3980 C.2   176  ASP176      0.3671
     87  OD1       48.8940   15.8180   45.3120 O.co2 176  ASP176     -0.2456
     88  OD2       49.0060   16.0860   47.4860 O.co2 176  ASP176     -0.2456
     89  N         44.6730   19.1020   45.3850 N.am  177  SER177     -0.1950
     90  CA        43.2270   19.1760   45.3450 C.3   177  SER177      0.1924
     91  C         42.4960   18.8880   44.0690 C.2   177  SER177      0.2314
     92  O         42.9260   19.2330   42.9730 O.2   177  SER177     -0.2863
     93  CB        42.5120   20.3430   46.1330 C.3   177  SER177      0.2116
     94  OG        43.2100   20.7720   47.2950 O.3   177  SER177     -0.2180
     95  N         40.3880   14.8700   47.0720 N.3   191  VAL191     -0.1231
     96  CA        41.2580   15.6850   47.9230 C.3   191  VAL191      0.1692
     97  C         40.5900   17.0410   48.1200 C.2   191  VAL191      0.2593
     98  O         40.3410   17.7630   47.1590 O.2   191  VAL191     -0.2718
     99  CB        42.6500   15.8770   47.2820 C.3   191  VAL191      0.0266
    100  CG1       43.4900   16.8320   48.1240 C.3   191  VAL191      0.0020
    101  CG2       43.3530   14.5270   47.1590 C.3   191  VAL191      0.0020
    102  N         40.2980   17.3900   49.3700 N.am  192  SER192     -0.1938
    103  CA        39.6160   18.6480   49.6460 C.3   192  SER192      0.2055
    104  C         40.4270   19.6550   50.4580 C.2   192  SER192      0.2643
    105  O         40.8760   20.6740   49.9250 O.2   192  SER192     -0.2714
    106  CB        38.2840   18.3580   50.3490 C.3   192  SER192      0.2130
    107  OG        37.4810   19.5230   50.4320 O.3   192  SER192     -0.2179
    108  N         40.6130   19.3800   51.7440 N.am  193  TRP193     -0.1959
    109  CA        41.3670   20.2970   52.5920 C.3   193  TRP193      0.1771
    110  C         42.0010   19.6230   53.8010 C.2   193  TRP193      0.2620
    111  O         41.9750   18.4000   53.9410 O.2   193  TRP193     -0.2715
    112  CB        40.4590   21.4330   53.0800 C.3   193  TRP193      0.0590
    113  CG        39.2930   20.9720   53.9210 C.ar  193  TRP193      0.0006
    114  CD1       38.1270   20.4210   53.4750 C.ar  193  TRP193      0.0946
    115  CD2       39.1870   21.0300   55.3530 C.ar  193  TRP193      0.0152
    116  NE1       37.2960   20.1350   54.5390 N.ar  193  TRP193     -0.2442
    117  CE2       37.9240   20.4970   55.7020 C.ar  193  TRP193      0.0810
    118  CE3       40.0370   21.4800   56.3730 C.ar  193  TRP193      0.0012
    119  CZ2       37.4870   20.4030   57.0300 C.ar  193  TRP193      0.0191
    120  CZ3       39.6010   21.3850   57.7000 C.ar  193  TRP193      0.0001
    121  CH2       38.3380   20.8490   58.0120 C.ar  193  TRP193      0.0015
    122  N         42.5690   20.4470   54.6750 N.am  194  GLY194     -0.1940
    123  CA        43.1980   19.9430   55.8820 C.3   194  GLY194      0.2014
    124  C         43.9640   21.0410   56.5940 C.2   194  GLY194      0.2640
    125  O         44.1200   22.1430   56.0630 O.2   194  GLY194     -0.2714
    126  N         44.4310   20.7540   57.8030 N.am  195  SER195     -0.1935
    127  CA        45.2000   21.7300   58.5610 C.3   195  SER195      0.2055
    128  C         46.6660   21.4900   58.2430 C.2   195  SER195      0.2644
    129  O         47.2730   20.5460   58.7540 O.2   195  SER195     -0.2714
    130  CB        44.9670   21.5590   60.0600 C.3   195  SER195      0.2130
    131  OG        45.6980   22.5320   60.7840 O.3   195  SER195     -0.2179
    132  N         47.2330   22.3470   57.4020 N.am  196  GLY196     -0.1939
    133  CA        48.6180   22.1700   57.0180 C.3   196  GLY196      0.2014
    134  C         48.6990   20.8580   56.2630 C.2   196  GLY196      0.2639
    135  O         47.7080   20.4200   55.6740 O.2   196  GLY196     -0.2714
    136  N         49.8650   20.2220   56.2790 N.am  197  CYS197     -0.1967
    137  CA        50.0410   18.9480   55.5930 C.3   197  CYS197      0.1712
    138  C         50.8230   17.9580   56.4400 C.2   197  CYS197      0.2296
    139  O         51.8600   18.2960   57.0020 O.2   197  CYS197     -0.2864
    140  CB        50.7870   19.1450   54.2750 C.3   197  CYS197      0.0983
    141  SG        49.9170   20.1640   53.0500 S.3   197  CYS197     -0.0798
    142  N         46.0350   15.8480   62.5930 N.3   202  LYS202     -0.1245
    143  CA        45.3580   16.6740   61.5990 C.3   202  LYS202      0.1561
    144  C         45.4070   15.9520   60.2550 C.2   202  LYS202      0.2260
    145  O         46.1780   16.3170   59.3670 O.2   202  LYS202     -0.2867
    146  CB        46.0380   18.0440   61.4940 C.3   202  LYS202      0.0271
    147  CG        45.7490   18.9800   62.6670 C.3   202  LYS202      0.0035
    148  CD        44.2920   19.4290   62.6570 C.3   202  LYS202      0.0206
    149  CE        43.9860   20.4390   63.7580 C.3   202  LYS202      0.1093
    150  NZ        44.0430   19.8360   65.1220 N.3   202  LYS202     -0.1314
    151  N         44.0450   14.3690   56.4920 N.3   204  GLY204     -0.1210
    152  CA        43.4570   15.0210   55.3370 C.3   204  GLY204      0.1956
    153  C         41.9500   14.8390   55.3210 C.2   204  GLY204      0.2612
    154  O         41.4350   13.8010   55.7470 O.2   204  GLY204     -0.2717
    155  N         41.2390   15.8550   54.8430 N.am  205  VAL205     -0.1965
    156  CA        39.7870   15.8000   54.7570 C.3   205  VAL205      0.1727
    157  C         39.4320   15.6550   53.2820 C.2   205  VAL205      0.2616
    158  O         39.9670   16.3690   52.4320 O.2   205  VAL205     -0.2715
    159  CB        39.1440   17.0720   55.3330 C.3   205  VAL205      0.0290
    160  CG1       37.6240   16.9380   55.3300 C.3   205  VAL205      0.0023
    161  CG2       39.6570   17.3060   56.7530 C.3   205  VAL205      0.0023
    162  N         38.5220   14.7320   52.9910 N.am  206  TYR206     -0.1974
    163  CA        38.1340   14.4390   51.6180 C.3   206  TYR206      0.1639
    164  C         36.6280   14.4700   51.3790 C.2   206  TYR206      0.2290
    165  O         35.8430   14.1180   52.2580 O.2   206  TYR206     -0.2864
    166  CB        38.6820   13.0580   51.2520 C.3   206  TYR206      0.0560
    167  CG        40.1810   12.9560   51.4310 C.ar  206  TYR206     -0.0198
    168  CD1       41.0470   13.3200   50.4040 C.ar  206  TYR206     -0.0009
    169  CD2       40.7350   12.5570   52.6510 C.ar  206  TYR206     -0.0009
    170  CE1       42.4230   13.2980   50.5790 C.ar  206  TYR206      0.0417
    171  CE2       42.1190   12.5320   52.8380 C.ar  206  TYR206      0.0417
    172  CZ        42.9550   12.9090   51.7950 C.ar  206  TYR206      0.1957
    173  OH        44.3230   12.9330   51.9730 O.3   206  TYR206     -0.2866
@<TRIPOS>BOND
     1    10     8   ar
     2    10    11   ar
     3     8     6   ar
     4    11     9   ar
     5     6     7   ar
     6     6     5    1
     7     1     2    1
     8     9     7   ar
     9    15    14    2
    10     5     2    1
    11     2     3    1
    12    31    30    2
    13    12     3   am
    14    12    13    1
    15    14    13    1
    16     3     4    2
    17    13    16    1
    18    30    29    1
    19    16    17    1
    20    32    29    1
    21    32    33    1
    22    29    28    1
    23    17    33    1
    24    92    91    2
    25    28    20   am
    26    80    79    2
    27    20    21    2
    28    20    19    1
    29    91    90    1
    30    79    78    1
    31    79    81   am
    32    78    77    1
    33    18    19    1
    34    84    83    2
    35    19    22    1
    36    83    82    1
    37    83    89   am
    38    82    81    1
    39    82    85    1
    40    87    86   ar
    41    90    89    1
    42    90    93    1
    43    77    70   am
    44    93    94    1
    45    86    85    1
    46    86    88   ar
    47    25    23   ar
    48    25    27   ar
    49    22    23    1
    50    71    70    2
    51    23    24   ar
    52    27    26   ar
    53    70    69    1
    54    95    96    1
    55    98    97    2
    56   101    99    1
    57    24    26   ar
    58    99    96    1
    59    99   100    1
    60    96    97    1
    61    97   102   am
    62    65    64    2
    63    69    72    1
    64    69    68    1
    65    38    39    1
    66    38    35    1
    67    72    73    1
    68    64    68   am
    69    64    63    1
    70   102   103    1
    71    35    34    1
    72    35    36    1
    73    73    74    1
    74   103   106    1
    75   103   104    1
    76   105   104    2
    77    62    63    1
    78    62    58   am
    79    60    57    1
    80    60    61    1
    81    47    45    1
    82    63    66    1
    83   106   107    1
    84   168   170   ar
    85   168   167   ar
    86   104   108   am
    87    66    67    1
    88   170   172   ar
    89    57    58    1
    90    57    56    1
    91    36    37    2
    92    74    76   am
    93    74    75    2
    94    58    59    2
    95   166   167    1
    96   166   163    1
    97    43    42    2
    98    46    45    1
    99   164   163    1
   100   164   165    2
   101    67   141    1
   102   167   169   ar
   103    45    44    1
   104   163   162    1
   105    41    42    1
   106    41    44    1
   107    41    40    1
   108    51    50    2
   109   108   109    1
   110   172   173    1
   111   172   171   ar
   112    56    50   am
   113    50    49    1
   114   158   157    2
   115   109   112    1
   116   109   110    1
   117   169   171   ar
   118   162   157   am
   119   141   140    1
   120   112   113    1
   121   157   156    1
   122   114   113   ar
   123   114   116   ar
   124    49    48    1
   125    49    52    1
   126   110   111    2
   127   110   122   am
   128   113   115   ar
   129    54    53   ar
   130   140   137    1
   131   116   117   ar
   132   122   123    1
   133   156   155    1
   134   156   159    1
   135    53    52    1
   136    53    55   ar
   137   155   153   am
   138   153   152    1
   139   153   154    2
   140   160   159    1
   141   159   161    1
   142   152   151    1
   143   115   117   ar
   144   115   118   ar
   145   137   136    1
   146   137   138    1
   147   135   134    2
   148   117   119   ar
   149   123   124    1
   150   125   124    2
   151   134   136   am
   152   134   133    1
   153   118   120   ar
   154   138   139    2
   155   124   126   am
   156   133   132    1
   157   119   121   ar
   158   132   128   am
   159   120   121   ar
   160   126   127    1
   161   128   127    1
   162   128   129    2
   163   127   130    1
   164   145   144    2
   165   130   131    1
   166   144   143    1
   167   146   143    1
   168   146   147    1
   169   143   142    1
   170   148   147    1
   171   148   149    1
   172   149   150    1
