@<TRIPOS>MOLECULE
tmp/1ncoA00.pdb
 109 105 0 0 0
SMALL
GASTEIGER

@<TRIPOS>ATOM
      1  N         33.8680    1.2110   14.0360 N.3    33  ASP33      -0.1225
      2  CA        32.5580    1.2440   13.4220 C.3    33  ASP33       0.1805
      3  C         32.6310    0.5100   12.0920 C.2    33  ASP33       0.2598
      4  O         33.6600    0.5800   11.4140 O.2    33  ASP33      -0.2718
      5  CB        32.1210    2.6350   13.1440 C.3    33  ASP33       0.1424
      6  CG        31.5490    3.3350   14.3430 C.2    33  ASP33       0.3668
      7  OD1       31.1420    2.6800   15.3110 O.co2  33  ASP33      -0.2456
      8  OD2       31.5050    4.5640   14.2880 O.co2  33  ASP33      -0.2456
      9  N         31.5890   -0.2090   11.7210 N.am   34  VAL34      -0.1966
     10  CA        31.5530   -0.9380   10.4650 C.3    34  VAL34       0.1727
     11  C         30.3250   -0.3470    9.8070 C.2    34  VAL34       0.2616
     12  O         29.2460   -0.3200   10.4290 O.2    34  VAL34      -0.2715
     13  CB        31.3690   -2.4680   10.6900 C.3    34  VAL34       0.0290
     14  CG1       31.4760   -3.1650    9.3360 C.3    34  VAL34       0.0023
     15  CG2       32.4320   -3.0200   11.6530 C.3    34  VAL34       0.0023
     16  N         30.4170    0.1600    8.5870 N.am   35  GLY35      -0.1955
     17  CA        29.2420    0.7550    7.9760 C.3    35  GLY35       0.1869
     18  C         29.4350    1.0430    6.4890 C.2    35  GLY35       0.2309
     19  O         30.5050    0.8520    5.9170 O.2    35  GLY35      -0.2863
     20  N         28.7320    3.9140    3.4270 N.3    37  CYS37      -0.1235
     21  CA        28.7730    5.3430    3.1770 C.3    37  CYS37       0.1677
     22  C         28.9240    5.6330    1.6830 C.2    37  CYS37       0.2270
     23  O         29.3440    4.7520    0.9340 O.2    37  CYS37      -0.2867
     24  CB        29.9610    5.9960    3.8800 C.3    37  CYS37       0.0956
     25  SG        30.0530    5.8110    5.6860 S.3    37  CYS37      -0.0801
     26  N         30.5060    8.9170   -0.9940 N.3    39  TRP39      -0.1241
     27  CA        31.1170   10.2400   -1.0600 C.3    39  TRP39       0.1605
     28  C         30.0980   11.0820   -1.8160 C.2    39  TRP39       0.2264
     29  O         29.5920   10.7120   -2.8760 O.2    39  TRP39      -0.2867
     30  CB        32.5230   10.1730   -1.7910 C.3    39  TRP39       0.0550
     31  CG        33.6650   10.5020   -0.7880 C.ar   39  TRP39       0.0003
     32  CD1       33.7560   11.7820   -0.2690 C.ar   39  TRP39       0.0946
     33  CD2       34.5860    9.6720   -0.1710 C.ar   39  TRP39       0.0152
     34  NE1       34.6720   11.7550    0.6730 N.ar   39  TRP39      -0.2442
     35  CE2       35.1760   10.5310    0.7500 C.ar   39  TRP39       0.0810
     36  CE3       35.0120    8.3810   -0.2050 C.ar   39  TRP39       0.0012
     37  CZ2       36.1620   10.1960    1.6410 C.ar   39  TRP39       0.0191
     38  CZ3       36.0090    8.0070    0.6880 C.ar   39  TRP39       0.0001
     39  CH2       36.5900    8.8860    1.6010 C.ar   39  TRP39       0.0015
     40  N         31.4790   12.4220    3.1950 N.3    45  LEU45      -0.1245
     41  CA        30.8290   11.1430    3.2180 C.3    45  LEU45       0.1561
     42  C         29.4810   11.2920    3.8880 C.2    45  LEU45       0.2260
     43  O         29.4050   11.9210    4.9630 O.2    45  LEU45      -0.2867
     44  CB        31.5510   10.0910    4.0590 C.3    45  LEU45       0.0270
     45  CG        32.8020    9.3350    3.7460 C.3    45  LEU45       0.0019
     46  CD1       33.1010    8.5400    5.0060 C.3    45  LEU45       0.0001
     47  CD2       32.6530    8.4240    2.5330 C.3    45  LEU45       0.0001
     48  N         26.7810    8.6930    5.4040 N.3    47  CYS47      -0.1235
     49  CA        26.6990    7.2990    5.8460 C.3    47  CYS47       0.1677
     50  C         25.3120    6.8490    6.2270 C.2    47  CYS47       0.2270
     51  O         24.3930    7.6480    6.3310 O.2    47  CYS47      -0.2867
     52  CB        27.6250    7.1080    7.0210 C.3    47  CYS47       0.0956
     53  SG        29.3140    7.4980    6.5150 S.3    47  CYS47      -0.0801
     54  N         24.8860    0.6200   10.9830 N.3    52  PHE52      -0.1241
     55  CA        26.2590    0.5270   11.4520 C.3    52  PHE52       0.1605
     56  C         26.4310   -0.5630   12.5060 C.2    52  PHE52       0.2264
     57  O         25.5230   -0.7820   13.3170 O.2    52  PHE52      -0.2867
     58  CB        26.7540    1.7930   12.1210 C.3    52  PHE52       0.0534
     59  CG        27.2960    2.9390   11.2800 C.ar   52  PHE52      -0.0203
     60  CD1       27.1900    2.9590    9.8970 C.ar   52  PHE52      -0.0042
     61  CD2       27.9660    3.9570   11.9400 C.ar   52  PHE52      -0.0042
     62  CE1       27.7680    3.9910    9.1880 C.ar   52  PHE52      -0.0003
     63  CE2       28.5330    4.9710   11.2200 C.ar   52  PHE52      -0.0003
     64  CZ        28.4410    4.9930    9.8390 C.ar   52  PHE52      -0.0000
     65  N         30.3780    2.5640   -0.5550 N.3    94  GLN94      -0.1231
     66  CA        31.4230    1.7130   -0.0170 C.3    94  GLN94       0.1698
     67  C         31.1240    1.2600    1.4260 C.2    94  GLN94       0.2592
     68  O         30.2390    1.7790    2.0960 O.2    94  GLN94      -0.2718
     69  CB        32.7920    2.3970   -0.0310 C.3    94  GLN94       0.0381
     70  CG        32.9460    3.8220    0.3990 C.3    94  GLN94       0.0905
     71  CD        34.3850    4.1680    0.7770 C.2    94  GLN94       0.2608
     72  OE1       35.3850    3.9510    0.0740 O.2    94  GLN94      -0.2717
     73  NE2       34.5590    4.6670    1.9950 N.am   94  GLN94      -0.0878
     74  N         31.7830    0.1770    1.8210 N.am   95  VAL95      -0.1966
     75  CA        31.6630   -0.4030    3.1530 C.3    95  VAL95       0.1727
     76  C         33.0570   -0.4360    3.7570 C.2    95  VAL95       0.2617
     77  O         34.0490   -0.6970    3.0600 O.2    95  VAL95      -0.2715
     78  CB        31.0690   -1.8010    3.0540 C.3    95  VAL95       0.0290
     79  CG1       31.1830   -2.5190    4.4140 C.3    95  VAL95       0.0023
     80  CG2       29.5820   -1.6880    2.6510 C.3    95  VAL95       0.0023
     81  N         33.1690   -0.1030    5.0380 N.am   96  GLY96      -0.1940
     82  CA        34.4640   -0.0670    5.6800 C.3    96  GLY96       0.2014
     83  C         34.3880   -0.0160    7.2020 C.2    96  GLY96       0.2639
     84  O         33.3320   -0.2330    7.7750 O.2    96  GLY96      -0.2714
     85  N         35.5300    0.2660    7.7880 N.am   97  LEU97      -0.1963
     86  CA        35.7770    0.2660    9.2290 C.3    97  LEU97       0.1728
     87  C         36.5630    1.5170    9.5970 C.2    97  LEU97       0.2616
     88  O         37.4780    1.9120    8.8520 O.2    97  LEU97      -0.2715
     89  CB        36.6900   -0.8550    9.7610 C.3    97  LEU97       0.0311
     90  CG        36.7170   -2.3950    9.6830 C.3    97  LEU97       0.0022
     91  CD1       35.4230   -2.9520   10.1420 C.3    97  LEU97       0.0001
     92  CD2       37.0060   -2.8480    8.2660 C.3    97  LEU97       0.0001
     93  N         36.2540    2.1770   10.7250 N.am   98  SER98      -0.1950
     94  CA        37.0830    3.2840   11.2250 C.3    98  SER98       0.1924
     95  C         36.9390    3.3800   12.7390 C.2    98  SER98       0.2314
     96  O         35.9280    2.9230   13.2840 O.2    98  SER98      -0.2863
     97  CB        36.6780    4.6070   10.5980 C.3    98  SER98       0.2116
     98  OG        35.2700    4.7170   10.6830 O.3    98  SER98      -0.2180
     99  N         41.2520    1.1660    7.5500 N.3   105  PRO105     -0.2116
    100  CA        41.4710    0.7060    6.1830 C.3   105  PRO105      0.1372
    101  C         40.7380    1.5960    5.1810 C.2   105  PRO105      0.2244
    102  O         39.7540    2.2850    5.5040 O.2   105  PRO105     -0.2868
    103  CB        40.9470   -0.7150    6.1510 C.3   105  PRO105      0.0268
    104  CG        40.6940   -1.0470    7.6160 C.3   105  PRO105      0.0207
    105  CD        40.3320    0.2760    8.2480 C.3   105  PRO105      0.0892
    106  N         37.9720    2.1250    2.4120 N.3   107  GLY107     -0.1225
    107  CA        36.6950    1.4630    2.1960 C.3   107  GLY107      0.1811
    108  C         36.7140    0.5540    0.9700 C.2   107  GLY107      0.2280
    109  O         37.6510    0.6140    0.1790 O.2   107  GLY107     -0.2866
@<TRIPOS>BOND
     1    29    28    2
     2    28    27    1
     3    30    27    1
     4    30    31    1
     5    27    26    1
     6    31    32   ar
     7    31    33   ar
     8    65    66    1
     9    32    34   ar
    10    36    33   ar
    11    36    38   ar
    12    33    35   ar
    13    69    66    1
    14    69    70    1
    15    66    67    1
    16    72    71    2
    17   109   108    2
    18    70    71    1
    19    34    35   ar
    20    38    39   ar
    21    35    37   ar
    22    71    73   am
    23    23    22    2
    24   108   107    1
    25    67    74   am
    26    67    68    2
    27    39    37   ar
    28    22    21    1
    29    74    75    1
    30   107   106    1
    31    47    45    1
    32    80    78    1
    33    78    75    1
    34    78    79    1
    35    77    76    2
    36    75    76    1
    37    21    20    1
    38    21    24    1
    39    40    41    1
    40    41    42    1
    41    41    44    1
    42    45    44    1
    43    45    46    1
    44    76    81   am
    45    24    25    1
    46    42    43    2
    47    81    82    1
    48   101   102    2
    49   101   100    1
    50    48    49    1
    51    82    83    1
    52    25    53    1
    53    49    50    1
    54    49    52    1
    55    19    18    2
    56   103   100    1
    57   103   104    1
    58   100    99    1
    59    50    51    2
    60    18    17    1
    61    53    52    1
    62    83    84    2
    63    83    85   am
    64    99   105    1
    65   104   105    1
    66    85    86    1
    67    17    16    1
    68    92    90    1
    69    16    11   am
    70    88    87    2
    71    62    64   ar
    72    62    60   ar
    73    86    87    1
    74    86    89    1
    75    14    13    1
    76    87    93   am
    77    90    89    1
    78    90    91    1
    79    11    12    2
    80    11    10    1
    81    64    63   ar
    82    60    59   ar
    83    10    13    1
    84    10     9    1
    85    97    98    1
    86    97    94    1
    87    13    15    1
    88    93    94    1
    89    54    55    1
    90    63    61   ar
    91    94    95    1
    92    59    61   ar
    93    59    58    1
    94     4     3    2
    95    55    58    1
    96    55    56    1
    97     9     3   am
    98     3     2    1
    99    56    57    2
   100    95    96    2
   101     5     2    1
   102     5     6    1
   103     2     1    1
   104     8     6   ar
   105     6     7   ar
