@<TRIPOS>MOLECULE
tmp/1ncqA00.pdb
 196 186 0 0 0
SMALL
GASTEIGER

@<TRIPOS>ATOM
      1  N         39.4070    3.6300  134.0990 N.3    86  TRP86      -0.1241
      2  CA        38.7630    4.8970  133.8240 C.3    86  TRP86       0.1605
      3  C         37.3260    4.6880  133.3940 C.2    86  TRP86       0.2264
      4  O         37.0730    4.0720  132.3630 O.2    86  TRP86      -0.2867
      5  CB        39.5450    5.6210  132.7250 C.3    86  TRP86       0.0550
      6  CG        38.8180    6.7470  132.0660 C.ar   86  TRP86       0.0003
      7  CD1       38.1400    7.7590  132.6780 C.ar   86  TRP86       0.0946
      8  CD2       38.7540    7.0150  130.6590 C.ar   86  TRP86       0.0152
      9  NE1       37.6600    8.6440  131.7420 N.ar   86  TRP86      -0.2442
     10  CE2       38.0230    8.2110  130.4940 C.ar   86  TRP86       0.0810
     11  CE3       39.2460    6.3600  129.5200 C.ar   86  TRP86       0.0012
     12  CZ2       37.7720    8.7690  129.2380 C.ar   86  TRP86       0.0191
     13  CZ3       38.9970    6.9150  128.2700 C.ar   86  TRP86       0.0001
     14  CH2       38.2660    8.1080  128.1410 C.ar   86  TRP86       0.0015
     15  N         34.8860    5.5880  131.5200 N.3    88  ILE88      -0.1231
     16  CA        34.7910    6.3920  130.3080 C.3    88  ILE88       0.1692
     17  C         33.7060    7.4580  130.2820 C.2    88  ILE88       0.2592
     18  O         32.5340    7.1870  130.5500 O.2    88  ILE88      -0.2718
     19  CB        34.6290    5.4840  129.0770 C.3    88  ILE88       0.0266
     20  CG1       35.7640    4.4590  129.0560 C.3    88  ILE88       0.0019
     21  CG2       34.6680    6.3160  127.8020 C.3    88  ILE88       0.0020
     22  CD1       35.5720    3.3520  128.0530 C.3    88  ILE88       0.0001
     23  N         34.1220    8.6750  129.9480 N.am   89  ASN89      -0.1960
     24  CA        33.2290    9.8220  129.8500 C.3    89  ASN89       0.1819
     25  C         34.0500   10.9470  129.2350 C.2    89  ASN89       0.2621
     26  O         35.2810   10.9350  129.3030 O.2    89  ASN89      -0.2715
     27  CB        32.7240   10.2390  131.2340 C.3    89  ASN89       0.1195
     28  CG        33.7650   11.0050  132.0290 C.2    89  ASN89       0.2630
     29  OD1       33.9480   12.2120  131.8400 O.2    89  ASN89      -0.2716
     30  ND2       34.4660   10.3020  132.9170 N.am   89  ASN89      -0.0877
     31  N         33.3720   11.9170  128.6350 N.am   90  LEU90      -0.1977
     32  CA        34.0610   13.0290  127.9970 C.3    90  LEU90       0.1596
     33  C         33.8170   14.3640  128.6950 C.2    90  LEU90       0.2287
     34  O         34.1210   15.4190  128.1320 O.2    90  LEU90      -0.2864
     35  CB        33.6310   13.1250  126.5270 C.3    90  LEU90       0.0297
     36  CG        34.4280   12.3970  125.4360 C.3    90  LEU90       0.0022
     37  CD1       35.0240   11.0960  125.9430 C.3    90  LEU90       0.0001
     38  CD2       33.5000   12.1470  124.2550 C.3    90  LEU90       0.0001
     39  N         31.6030   20.3940  123.1260 N.3   100  LEU100     -0.1245
     40  CA        30.5460   19.4320  122.8770 C.3   100  LEU100      0.1561
     41  C         29.2070   19.9620  123.3610 C.2   100  LEU100      0.2260
     42  O         28.1870   19.7800  122.7020 O.2   100  LEU100     -0.2867
     43  CB        30.8570   18.1130  123.5810 C.3   100  LEU100      0.0270
     44  CG        32.0020   17.2910  122.9970 C.3   100  LEU100      0.0019
     45  CD1       32.3610   16.1720  123.9450 C.3   100  LEU100      0.0001
     46  CD2       31.5940   16.7420  121.6430 C.3   100  LEU100      0.0001
     47  N         24.6670   14.8670  119.8040 N.3   106  VAL106     -0.1245
     48  CA        25.8560   14.8350  118.9930 C.3   106  VAL106      0.1561
     49  C         26.1340   13.3880  118.5910 C.2   106  VAL106      0.2260
     50  O         25.9730   12.4730  119.3930 O.2   106  VAL106     -0.2867
     51  CB        27.0170   15.4690  119.8050 C.3   106  VAL106      0.0252
     52  CG1       27.8510   14.4050  120.4750 C.3   106  VAL106      0.0019
     53  CG2       27.8320   16.3640  118.9290 C.3   106  VAL106      0.0019
     54  N         28.9800   10.9110  116.3230 N.3   108  PHE108     -0.1241
     55  CA        30.2450   10.8330  115.6080 C.3   108  PHE108      0.1605
     56  C         31.0540    9.5900  115.9460 C.2   108  PHE108      0.2264
     57  O         30.7490    8.8640  116.8910 O.2   108  PHE108     -0.2867
     58  CB        31.0860   12.0760  115.9210 C.3   108  PHE108      0.0534
     59  CG        31.2550   12.3400  117.3980 C.ar  108  PHE108     -0.0203
     60  CD1       32.0070   11.4810  118.1950 C.ar  108  PHE108     -0.0042
     61  CD2       30.6430   13.4410  117.9950 C.ar  108  PHE108     -0.0042
     62  CE1       32.1470   11.7150  119.5630 C.ar  108  PHE108     -0.0003
     63  CE2       30.7770   13.6820  119.3590 C.ar  108  PHE108     -0.0003
     64  CZ        31.5290   12.8180  120.1440 C.ar  108  PHE108     -0.0000
     65  N         34.8290    8.0430  116.9550 N.3   110  SER110     -0.1217
     66  CA        35.8870    8.5780  117.7930 C.3   110  SER110      0.1889
     67  C         37.2460    7.9950  117.4630 C.2   110  SER110      0.2288
     68  O         37.3630    6.8190  117.1400 O.2   110  SER110     -0.2866
     69  CB        35.5720    8.3060  119.2690 C.3   110  SER110      0.2089
     70  OG        34.3670    8.9320  119.6720 O.3   110  SER110     -0.2183
     71  N         40.8520    7.6150  119.2420 N.3   112  TYR112     -0.1241
     72  CA        41.5650    7.7700  120.4960 C.3   112  TYR112      0.1605
     73  C         43.0660    7.6670  120.3420 C.2   112  TYR112      0.2264
     74  O         43.5760    6.9430  119.4860 O.2   112  TYR112     -0.2867
     75  CB        41.1040    6.7280  121.5140 C.3   112  TYR112      0.0534
     76  CG        39.7110    6.9700  122.0210 C.ar  112  TYR112     -0.0201
     77  CD1       38.6120    6.3560  121.4230 C.ar  112  TYR112     -0.0009
     78  CD2       39.4800    7.8670  123.0630 C.ar  112  TYR112     -0.0009
     79  CE1       37.3110    6.6360  121.8490 C.ar  112  TYR112      0.0417
     80  CE2       38.1860    8.1560  123.4970 C.ar  112  TYR112      0.0417
     81  CZ        37.1040    7.5390  122.8860 C.ar  112  TYR112      0.1957
     82  OH        35.8160    7.8270  123.2990 O.3   112  TYR112     -0.2866
     83  N         46.3180    7.3090  123.0540 N.3   114  ILE114     -0.1245
     84  CA        46.7180    7.1570  124.4410 C.3   114  ILE114      0.1561
     85  C         48.2250    7.3210  124.5750 C.2   114  ILE114      0.2260
     86  O         48.9980    6.5870  123.9600 O.2   114  ILE114     -0.2867
     87  CB        46.3050    5.7820  124.9900 C.3   114  ILE114      0.0252
     88  CG1       44.8100    5.5600  124.7600 C.3   114  ILE114      0.0019
     89  CG2       46.5880    5.7170  126.4780 C.3   114  ILE114      0.0019
     90  CD1       44.3220    4.1820  125.1590 C.3   114  ILE114      0.0001
     91  N         46.0320   -1.5760  127.5840 N.3   134  ALA134     -0.1245
     92  CA        44.8090   -0.8320  127.8160 C.3   134  ALA134      0.1562
     93  C         43.7220   -1.7620  127.3160 C.2   134  ALA134      0.2260
     94  O         43.7220   -2.1330  126.1500 O.2   134  ALA134     -0.2867
     95  CB        44.8130    0.4630  127.0170 C.3   134  ALA134      0.0290
     96  N         39.5090   -2.5220  127.0380 N.3   136  TYR136     -0.1241
     97  CA        38.1790   -1.9430  127.1390 C.3   136  TYR136      0.1605
     98  C         37.2730   -2.9130  127.8770 C.2   136  TYR136      0.2264
     99  O         37.0960   -4.0520  127.4480 O.2   136  TYR136     -0.2867
    100  CB        37.5950   -1.6820  125.7550 C.3   136  TYR136      0.0534
    101  CG        36.1930   -1.1180  125.8010 C.ar  136  TYR136     -0.0201
    102  CD1       35.1880   -1.6450  124.9930 C.ar  136  TYR136     -0.0009
    103  CD2       35.8560   -0.0890  126.6840 C.ar  136  TYR136     -0.0009
    104  CE1       33.8800   -1.1720  125.0660 C.ar  136  TYR136      0.0417
    105  CE2       34.5450    0.3970  126.7630 C.ar  136  TYR136      0.0417
    106  CZ        33.5650   -0.1480  125.9540 C.ar  136  TYR136      0.1957
    107  OH        32.2900    0.3640  126.0320 O.3   136  TYR136     -0.2866
    108  N         38.4020   -5.7600  123.5440 N.3   158  PRO158     -0.2102
    109  CA        39.5310   -5.3520  122.7110 C.3   158  PRO158      0.1504
    110  C         40.5630   -4.6570  123.6080 C.2   158  PRO158      0.2576
    111  O         40.1890   -4.0240  124.5940 O.2   158  PRO158     -0.2718
    112  CB        38.8880   -4.3890  121.7180 C.3   158  PRO158      0.0282
    113  CG        37.7930   -3.7720  122.5210 C.3   158  PRO158      0.0208
    114  CD        37.2030   -4.9670  123.2290 C.3   158  PRO158      0.0893
    115  N         41.8500   -4.7970  123.2970 N.am  159  SER159     -0.1938
    116  CA        42.8860   -4.1080  124.0630 C.3   159  SER159      0.2055
    117  C         44.1520   -3.8720  123.2410 C.2   159  SER159      0.2642
    118  O         44.3740   -4.5640  122.2530 O.2   159  SER159     -0.2714
    119  CB        43.1880   -4.8400  125.3910 C.3   159  SER159      0.2130
    120  OG        43.4330   -6.2160  125.2380 O.3   159  SER159     -0.2179
    121  N         44.9430   -2.8610  123.6080 N.am  160  VAL160     -0.1977
    122  CA        46.1940   -2.5920  122.9010 C.3   160  VAL160      0.1596
    123  C         47.3450   -2.7180  123.8500 C.2   160  VAL160      0.2287
    124  O         47.2340   -2.4010  125.0310 O.2   160  VAL160     -0.2864
    125  CB        46.4160   -1.1560  122.4030 C.3   160  VAL160      0.0276
    126  CG1       46.6580   -1.1830  120.8950 C.3   160  VAL160      0.0022
    127  CG2       45.3810   -0.1940  122.9930 C.3   160  VAL160      0.0022
    128  N         43.7560    4.2490  117.6850 N.3   170  PHE170     -0.1241
    129  CA        42.7060    3.4140  117.1120 C.3   170  PHE170      0.1605
    130  C         41.4390    4.2390  117.1060 C.2   170  PHE170      0.2264
    131  O         41.3330    5.2200  117.8390 O.2   170  PHE170     -0.2867
    132  CB        42.4490    2.1810  117.9880 C.3   170  PHE170      0.0534
    133  CG        42.1110    2.5380  119.3940 C.ar  170  PHE170     -0.0203
    134  CD1       43.0840    3.0630  120.2270 C.ar  170  PHE170     -0.0042
    135  CD2       40.8070    2.4410  119.8670 C.ar  170  PHE170     -0.0042
    136  CE1       42.7670    3.4990  121.5000 C.ar  170  PHE170     -0.0003
    137  CE2       40.4800    2.8720  121.1510 C.ar  170  PHE170     -0.0003
    138  CZ        41.4640    3.3990  121.9640 C.ar  170  PHE170     -0.0000
    139  N         37.0090    4.2550  117.1570 N.3   172  VAL172     -0.1245
    140  CA        35.8400    3.5400  117.6260 C.3   172  VAL172      0.1561
    141  C         34.6030    4.0930  116.9380 C.2   172  VAL172      0.2260
    142  O         34.4130    5.3030  116.8630 O.2   172  VAL172     -0.2867
    143  CB        35.6710    3.7220  119.1440 C.3   172  VAL172      0.0252
    144  CG1       34.4720    2.9360  119.6330 C.3   172  VAL172      0.0019
    145  CG2       36.9320    3.2870  119.8610 C.3   172  VAL172      0.0019
    146  N         29.1490    4.4260  119.2760 N.3   175  VAL175     -0.1245
    147  CA        28.6000    3.3380  120.0840 C.3   175  VAL175      0.1561
    148  C         27.3900    3.6600  120.9360 C.2   175  VAL175      0.2260
    149  O         27.0460    2.8860  121.8290 O.2   175  VAL175     -0.2867
    150  CB        29.6570    2.7420  121.0320 C.3   175  VAL175      0.0252
    151  CG1       30.6770    1.9610  120.2450 C.3   175  VAL175      0.0019
    152  CG2       30.3240    3.8500  121.8250 C.3   175  VAL175      0.0019
    153  N         24.4140   10.7810  120.7390 N.3   181  TYR181     -0.1227
    154  CA        24.7920   10.8910  122.1420 C.3   181  TYR181      0.1736
    155  C         24.0470   12.0950  122.7100 C.2   181  TYR181      0.2595
    156  O         23.8290   13.0770  122.0010 O.2   181  TYR181     -0.2718
    157  CB        26.2910   11.1610  122.3000 C.3   181  TYR181      0.0548
    158  CG        27.2290   10.0610  121.8630 C.ar  181  TYR181     -0.0200
    159  CD1       27.1100    8.7670  122.3640 C.ar  181  TYR181     -0.0009
    160  CD2       28.2750   10.3320  120.9840 C.ar  181  TYR181     -0.0009
    161  CE1       28.0130    7.7690  122.0000 C.ar  181  TYR181      0.0417
    162  CE2       29.1810    9.3450  120.6150 C.ar  181  TYR181      0.0417
    163  CZ        29.0450    8.0670  121.1240 C.ar  181  TYR181      0.1957
    164  OH        29.9370    7.0900  120.7500 O.3   181  TYR181     -0.2866
    165  N         23.6510   12.0250  123.9770 N.am  182  ASN182     -0.1974
    166  CA        22.9850   13.1560  124.6100 C.3   182  ASN182      0.1688
    167  C         24.0340   13.9190  125.3950 C.2   182  ASN182      0.2292
    168  O         24.8150   13.3210  126.1380 O.2   182  ASN182     -0.2864
    169  CB        21.9040   12.7000  125.5930 C.3   182  ASN182      0.1181
    170  CG        20.6160   12.3210  124.9140 C.2   182  ASN182      0.2629
    171  OD1       19.5290   12.6480  125.3950 O.2   182  ASN182     -0.2716
    172  ND2       20.7220   11.6150  123.7980 N.am  182  ASN182     -0.0877
    173  N         25.0280    7.9560  129.9990 N.3   203  ASN203     -0.1240
    174  CA        26.3930    7.6360  129.5960 C.3   203  ASN203      0.1653
    175  C         27.0280    6.5980  130.5350 C.2   203  ASN203      0.2266
    176  O         27.7940    6.9140  131.4600 O.2   203  ASN203     -0.2867
    177  CB        27.2350    8.9320  129.4900 C.3   203  ASN203      0.1155
    178  CG        26.8100    9.8330  128.2750 C.2   203  ASN203      0.2627
    179  OD1       25.9480    9.4470  127.4480 O.2   203  ASN203     -0.2716
    180  ND2       27.4220   11.0270  128.1720 N.am  203  ASN203     -0.0877
    181  N         29.0940    3.8060  129.6360 N.3   205  MET205     -0.1245
    182  CA        29.9270    3.2100  128.5950 C.3   205  MET205      0.1570
    183  C         30.9770    2.2500  129.1190 C.2   205  MET205      0.2261
    184  O         31.9360    1.9340  128.4020 O.2   205  MET205     -0.2867
    185  CB        30.6560    4.3140  127.8370 C.3   205  MET205      0.0387
    186  CG        29.8690    5.6030  127.7540 C.3   205  MET205      0.0595
    187  SD        29.1110    5.7550  126.1350 S.3   205  MET205     -0.1393
    188  CE        27.8720    4.3730  126.1820 C.3   205  MET205      0.0692
    189  N         37.8180    1.5950  130.8020 N.3   208  MET208     -0.1245
    190  CA        38.9680    0.9040  130.2690 C.3   208  MET208      0.1570
    191  C         40.0550    0.8250  131.3290 C.2   208  MET208      0.2261
    192  O         40.3720    1.8050  131.9970 O.2   208  MET208     -0.2867
    193  CB        39.4510    1.5250  128.9530 C.3   208  MET208      0.0387
    194  CG        40.1900    2.8200  128.9990 C.3   208  MET208      0.0595
    195  SD        40.9380    3.0260  127.3300 S.3   208  MET208     -0.1393
    196  CE        39.7860    4.1420  126.5790 C.3   208  MET208      0.0692
@<TRIPOS>BOND
     1    55    58    1
     2    55    56    1
     3    55    54    1
     4    58    59    1
     5    56    57    2
     6   142   141    2
     7   141   140    1
     8    65    66    1
     9   130   129    1
    10   130   131    2
    11   129   128    1
    12   129   132    1
    13    68    67    2
    14   139   140    1
    15    59    61   ar
    16    59    60   ar
    17    67    66    1
    18   140   143    1
    19    66    69    1
    20   132   133    1
    21    61    63   ar
    22    60    62   ar
    23    49    48    1
    24    49    50    2
    25    53    51    1
    26    48    47    1
    27    48    51    1
    28   143   144    1
    29   143   145    1
    30    71    72    1
    31    69    70    1
    32   146   147    1
    33    63    64   ar
    34   133   135   ar
    35   133   134   ar
    36    74    73    2
    37    62    64   ar
    38    51    52    1
    39   135   137   ar
    40   147   148    1
    41   147   150    1
    42   134   136   ar
    43   151   150    1
    44    73    72    1
    45    72    75    1
    46   162   160   ar
    47   162   163   ar
    48   153   154    1
    49   164   163    1
    50   126   125    1
    51   148   149    2
    52   160   158   ar
    53   150   152    1
    54   163   161   ar
    55   137   138   ar
    56    77    79   ar
    57    77    76   ar
    58   136   138   ar
    59    75    76    1
    60    46    44    1
    61   112   113    1
    62   112   109    1
    63    79    81   ar
    64   158   157    1
    65   158   159   ar
    66   161   159   ar
    67   156   155    2
    68    76    78   ar
    69   154   157    1
    70   154   155    1
    71   118   117    2
    72   125   122    1
    73   125   127    1
    74   113   114    1
    75    42    41    2
    76   155   165   am
    77   109   108    1
    78   109   110    1
    79    40    39    1
    80    40    41    1
    81    40    43    1
    82    81    82    1
    83    81    80   ar
    84   122   121    1
    85   122   123    1
    86    44    43    1
    87    44    45    1
    88    83    84    1
    89    78    80   ar
    90   114   108    1
    91   117   121   am
    92   117   116    1
    93   115   110   am
    94   115   116    1
    95   110   111    2
    96   172   170   am
    97   123   124    2
    98    86    85    2
    99   165   166    1
   100   116   119    1
   101    38    36    1
   102    84    85    1
   103    84    87    1
   104   166   167    1
   105   166   169    1
   106    88    87    1
   107    88    90    1
   108   170   171    2
   109   170   169    1
   110    87    89    1
   111   102   104   ar
   112   102   101   ar
   113   104   106   ar
   114   120   119    1
   115   167   168    2
   116    36    37    1
   117    36    35    1
   118   100   101    1
   119   100    97    1
   120   101   103   ar
   121   106   107    1
   122   106   105   ar
   123   187   188    1
   124   187   186    1
   125    94    93    2
   126    35    32    1
   127   196   195    1
   128   103   105   ar
   129    95    92    1
   130    96    97    1
   131    97    98    1
   132    93    92    1
   133   195   194    1
   134   179   178    2
   135    99    98    2
   136    91    92    1
   137   186   185    1
   138    21    19    1
   139   185   182    1
   140    32    31    1
   141    32    33    1
   142    22    20    1
   143    34    33    2
   144    14    13   ar
   145    14    12   ar
   146   180   178   am
   147    13    11   ar
   148   178   177    1
   149   184   183    2
   150   182   183    1
   151   182   181    1
   152    31    25   am
   153   193   194    1
   154   193   190    1
   155    20    19    1
   156    19    16    1
   157    25    26    2
   158    25    24    1
   159    12    10   ar
   160   177   174    1
   161    11     8   ar
   162   174   173    1
   163   174   175    1
   164    24    23    1
   165    24    27    1
   166    23    17   am
   167   190   189    1
   168   190   191    1
   169    17    16    1
   170    17    18    2
   171    16    15    1
   172    10     8   ar
   173    10     9   ar
   174   175   176    2
   175     8     6   ar
   176    27    28    1
   177   191   192    2
   178     9     7   ar
   179    29    28    2
   180    28    30   am
   181     6     7   ar
   182     6     5    1
   183     4     3    2
   184     5     2    1
   185     3     2    1
   186     2     1    1
