@<TRIPOS>MOLECULE
tmp/1ncrA00.pdb
 220 208 0 0 0
SMALL
GASTEIGER

@<TRIPOS>ATOM
      1  N         48.0900    9.4750  125.8370 N.3    77  ILE77      -0.1245
      2  CA        46.9250    9.0600  126.6110 C.3    77  ILE77       0.1561
      3  C         47.2980    8.2090  127.8260 C.2    77  ILE77       0.2260
      4  O         46.4410    7.8850  128.6480 O.2    77  ILE77      -0.2867
      5  CB        45.9210    8.2490  125.7540 C.3    77  ILE77       0.0252
      6  CG1       46.5970    6.9820  125.2260 C.3    77  ILE77       0.0019
      7  CG2       45.3830    9.1080  124.6220 C.3    77  ILE77       0.0019
      8  CD1       45.6350    5.9640  124.6630 C.3    77  ILE77       0.0001
      9  N         47.2490   -1.9440  132.6500 N.3    96  TRP96      -0.1241
     10  CA        46.5230   -0.6770  132.6180 C.3    96  TRP96       0.1605
     11  C         45.0910   -0.8460  132.1210 C.2    96  TRP96       0.2264
     12  O         44.8580   -1.4740  131.0860 O.2    96  TRP96      -0.2867
     13  CB        47.2510    0.3210  131.7060 C.3    96  TRP96       0.0550
     14  CG        46.5220    1.6250  131.5290 C.ar   96  TRP96       0.0003
     15  CD1       46.0780    2.4550  132.5200 C.ar   96  TRP96       0.0946
     16  CD2       46.1740    2.2580  130.2910 C.ar   96  TRP96       0.0152
     17  NE1       45.4770    3.5660  131.9770 N.ar   96  TRP96      -0.2442
     18  CE2       45.5200    3.4710  130.6120 C.ar   96  TRP96       0.0810
     19  CE3       46.3500    1.9210  128.9450 C.ar   96  TRP96       0.0012
     20  CZ2       45.0420    4.3480  129.6330 C.ar   96  TRP96       0.0191
     21  CZ3       45.8740    2.7940  127.9720 C.ar   96  TRP96       0.0001
     22  CH2       45.2290    3.9920  128.3230 C.ar   96  TRP96       0.0015
     23  N         42.6410    0.3420  130.1360 N.3    98  ILE98      -0.1231
     24  CA        42.5610    1.2390  128.9880 C.3    98  ILE98       0.1692
     25  C         41.4170    2.2460  128.9830 C.2    98  ILE98       0.2592
     26  O         40.2700    1.9000  129.2610 O.2    98  ILE98      -0.2718
     27  CB        42.4620    0.4180  127.6940 C.3    98  ILE98       0.0266
     28  CG1       43.6710   -0.5090  127.5790 C.3    98  ILE98       0.0019
     29  CG2       42.3520    1.3380  126.4950 C.3    98  ILE98       0.0020
     30  CD1       43.5610   -1.5070  126.4510 C.3    98  ILE98       0.0001
     31  N         41.7380    3.4910  128.6450 N.am   99  ASN99      -0.1960
     32  CA        40.7400    4.5510  128.5640 C.3    99  ASN99       0.1819
     33  C         41.3520    5.8030  127.9390 C.2    99  ASN99       0.2621
     34  O         42.5680    5.9550  127.9070 O.2    99  ASN99      -0.2715
     35  CB        40.1750    4.8670  129.9580 C.3    99  ASN99       0.1195
     36  CG        41.1450    5.6560  130.8250 C.2    99  ASN99       0.2630
     37  OD1       41.3470    6.8560  130.6220 O.2    99  ASN99      -0.2716
     38  ND2       41.7530    4.9830  131.7960 N.am   99  ASN99      -0.0877
     39  N         40.5050    6.6890  127.4260 N.am  100  LEU100     -0.1977
     40  CA        40.9680    7.9310  126.8180 C.3   100  LEU100      0.1596
     41  C         40.6050    9.0850  127.7450 C.2   100  LEU100      0.2287
     42  O         40.3500   10.1970  127.2870 O.2   100  LEU100     -0.2864
     43  CB        40.2960    8.1340  125.4600 C.3   100  LEU100      0.0297
     44  CG        40.6280    7.1260  124.3600 C.3   100  LEU100      0.0022
     45  CD1       39.7700    7.3940  123.1430 C.3   100  LEU100      0.0001
     46  CD2       42.0940    7.2280  124.0030 C.3   100  LEU100      0.0001
     47  N         35.2560    6.2720  115.3010 N.3   118  PHE118     -0.1241
     48  CA        36.5350    6.3830  114.6160 C.3   118  PHE118      0.1605
     49  C         37.4180    5.1680  114.8100 C.2   118  PHE118      0.2264
     50  O         37.2120    4.3830  115.7330 O.2   118  PHE118     -0.2867
     51  CB        37.2790    7.6220  115.1320 C.3   118  PHE118      0.0534
     52  CG        37.4570    7.6470  116.6350 C.ar  118  PHE118     -0.0203
     53  CD1       38.4590    6.9010  117.2500 C.ar  118  PHE118     -0.0042
     54  CD2       36.6100    8.4120  117.4390 C.ar  118  PHE118     -0.0042
     55  CE1       38.6170    6.9160  118.6450 C.ar  118  PHE118     -0.0003
     56  CE2       36.7590    8.4320  118.8340 C.ar  118  PHE118     -0.0003
     57  CZ        37.7630    7.6840  119.4340 C.ar  118  PHE118     -0.0000
     58  N         41.3950    3.8000  115.3380 N.3   120  SER120     -0.1217
     59  CA        42.4850    4.3740  116.1070 C.3   120  SER120      0.1889
     60  C         43.8650    3.9880  115.6030 C.2   120  SER120      0.2288
     61  O         44.0540    2.9250  115.0080 O.2   120  SER120     -0.2866
     62  CB        42.3740    3.9540  117.5780 C.3   120  SER120      0.2089
     63  OG        41.1610    4.3960  118.1580 O.3   120  SER120     -0.2183
     64  N         47.5490    3.7220  117.2920 N.3   122  ILE122     -0.1245
     65  CA        48.2740    3.7700  118.5470 C.3   122  ILE122      0.1561
     66  C         49.7580    3.7480  118.2100 C.2   122  ILE122      0.2260
     67  O         50.2050    2.9400  117.3990 O.2   122  ILE122     -0.2867
     68  CB        47.9190    2.5570  119.4590 C.3   122  ILE122      0.0252
     69  CG1       46.6880    2.8650  120.3120 C.3   122  ILE122      0.0019
     70  CG2       49.0540    2.2760  120.4280 C.3   122  ILE122      0.0019
     71  CD1       45.4400    3.1380  119.5620 C.3   122  ILE122      0.0001
     72  N         53.6120    3.8960  120.1670 N.3   124  MET124     -0.1245
     73  CA        54.2750    3.8050  121.4600 C.3   124  MET124      0.1570
     74  C         55.6970    4.3470  121.4570 C.2   124  MET124      0.2261
     75  O         56.4620    4.1290  120.5180 O.2   124  MET124     -0.2867
     76  CB        54.2780    2.3610  121.9430 C.3   124  MET124      0.0387
     77  CG        52.8910    1.8250  122.2120 C.3   124  MET124      0.0595
     78  SD        52.9130    0.1110  122.7370 S.3   124  MET124     -0.1393
     79  CE        51.1950   -0.1410  123.1690 C.3   124  MET124      0.0692
     80  N         53.9000   -6.0020  124.7110 N.3   142  TYR142     -0.1241
     81  CA        52.6690   -5.2960  125.0380 C.3   142  TYR142      0.1605
     82  C         51.5570   -6.2110  124.5550 C.2   142  TYR142      0.2264
     83  O         51.5280   -6.5830  123.3840 O.2   142  TYR142     -0.2867
     84  CB        52.6110   -3.9610  124.2980 C.3   142  TYR142      0.0534
     85  CG        53.7700   -3.0560  124.6190 C.ar  142  TYR142     -0.0201
     86  CD1       53.7920   -2.3080  125.7990 C.ar  142  TYR142     -0.0009
     87  CD2       54.8720   -2.9790  123.7680 C.ar  142  TYR142     -0.0009
     88  CE1       54.8910   -1.5010  126.1250 C.ar  142  TYR142      0.0417
     89  CE2       55.9750   -2.1780  124.0840 C.ar  142  TYR142      0.0417
     90  CZ        55.9790   -1.4440  125.2640 C.ar  142  TYR142      0.1957
     91  OH        57.0720   -0.6710  125.5860 O.3   142  TYR142     -0.2866
     92  N         47.2940   -6.9500  124.4510 N.3   144  TYR144     -0.1241
     93  CA        45.9510   -6.4450  124.6600 C.3   144  TYR144      0.1605
     94  C         45.0540   -7.5720  125.1490 C.2   144  TYR144      0.2264
     95  O         44.7880   -8.5370  124.4330 O.2   144  TYR144     -0.2867
     96  CB        45.3910   -5.8540  123.3670 C.3   144  TYR144      0.0534
     97  CG        43.9420   -5.4420  123.4710 C.ar  144  TYR144     -0.0201
     98  CD1       43.4680   -4.7710  124.5990 C.ar  144  TYR144     -0.0009
     99  CD2       43.0480   -5.7030  122.4350 C.ar  144  TYR144     -0.0009
    100  CE1       42.1360   -4.3690  124.6940 C.ar  144  TYR144      0.0417
    101  CE2       41.7120   -5.3050  122.5170 C.ar  144  TYR144      0.0417
    102  CZ        41.2620   -4.6390  123.6500 C.ar  144  TYR144      0.1957
    103  OH        39.9430   -4.2470  123.7390 O.3   144  TYR144     -0.2866
    104  N         46.3350  -10.1020  120.7750 N.3   166  ALA166     -0.1231
    105  CA        47.3610   -9.4810  119.9590 C.3   166  ALA166      0.1694
    106  C         48.4580   -8.9850  120.8960 C.2   166  ALA166      0.2593
    107  O         48.1770   -8.4380  121.9670 O.2   166  ALA166     -0.2718
    108  CB        46.7790   -8.3100  119.1730 C.3   166  ALA166      0.0304
    109  N         49.7050   -9.2100  120.5030 N.am  167  SER167     -0.1938
    110  CA        50.8500   -8.7430  121.2710 C.3   167  SER167      0.2055
    111  C         51.7960   -8.0730  120.2950 C.2   167  SER167      0.2642
    112  O         51.8550   -8.4450  119.1190 O.2   167  SER167     -0.2714
    113  CB        51.5890   -9.8980  121.9590 C.3   167  SER167      0.2130
    114  OG        50.9380  -10.3200  123.1420 O.3   167  SER167     -0.2179
    115  N         52.5180   -7.0720  120.7780 N.am  168  VAL168     -0.1977
    116  CA        53.4970   -6.3820  119.9620 C.3   168  VAL168      0.1596
    117  C         54.8170   -6.4540  120.6990 C.2   168  VAL168      0.2287
    118  O         54.9080   -6.0540  121.8600 O.2   168  VAL168     -0.2864
    119  CB        53.1280   -4.9010  119.7350 C.3   168  VAL168      0.0276
    120  CG1       54.3550   -4.1160  119.3180 C.3   168  VAL168      0.0022
    121  CG2       52.0870   -4.7950  118.6410 C.3   168  VAL168      0.0022
    122  N         50.3500    0.5650  115.4170 N.3   179  PHE179     -0.1241
    123  CA        49.3600   -0.3030  114.7900 C.3   179  PHE179      0.1605
    124  C         48.0070    0.3970  114.7640 C.2   179  PHE179      0.2264
    125  O         47.7990    1.3890  115.4620 O.2   179  PHE179     -0.2867
    126  CB        49.2370   -1.6280  115.5460 C.3   179  PHE179      0.0534
    127  CG        48.9660   -1.4650  117.0120 C.ar  179  PHE179     -0.0203
    128  CD1       50.0160   -1.3590  117.9200 C.ar  179  PHE179     -0.0042
    129  CD2       47.6610   -1.3860  117.4860 C.ar  179  PHE179     -0.0042
    130  CE1       49.7700   -1.1750  119.2730 C.ar  179  PHE179     -0.0003
    131  CE2       47.4060   -1.2010  118.8390 C.ar  179  PHE179     -0.0003
    132  CZ        48.4620   -1.0940  119.7330 C.ar  179  PHE179     -0.0000
    133  N         43.6280    0.2030  114.9540 N.3   181  LEU181     -0.1245
    134  CA        42.5310   -0.4950  115.6020 C.3   181  LEU181      0.1561
    135  C         41.2420   -0.0540  114.9360 C.2   181  LEU181      0.2260
    136  O         41.0500    1.1320  114.6580 O.2   181  LEU181     -0.2867
    137  CB        42.4690   -0.1420  117.0840 C.3   181  LEU181      0.0270
    138  CG        43.5240   -0.7370  118.0120 C.3   181  LEU181      0.0019
    139  CD1       43.4490   -0.0490  119.3590 C.3   181  LEU181      0.0001
    140  CD2       43.3030   -2.2290  118.1560 C.3   181  LEU181      0.0001
    141  N         35.9130   -0.1560  117.8100 N.3   184  LEU184     -0.1245
    142  CA        35.6860   -1.2570  118.7540 C.3   184  LEU184      0.1561
    143  C         34.3790   -1.4400  119.5260 C.2   184  LEU184      0.2260
    144  O         34.1730   -2.4940  120.1340 O.2   184  LEU184     -0.2867
    145  CB        36.8110   -1.2230  119.7870 C.3   184  LEU184      0.0270
    146  CG        38.2150   -1.1150  119.2070 C.3   184  LEU184      0.0019
    147  CD1       39.1430   -0.5500  120.2390 C.3   184  LEU184      0.0001
    148  CD2       38.6820   -2.4740  118.7280 C.3   184  LEU184      0.0001
    149  N         31.0420    5.6640  119.9360 N.3   190  TYR190     -0.1241
    150  CA        31.5200    5.7040  121.3060 C.3   190  TYR190      0.1605
    151  C         30.7310    6.7810  122.0400 C.2   190  TYR190      0.2264
    152  O         30.3900    7.8090  121.4560 O.2   190  TYR190     -0.2867
    153  CB        33.0040    6.0720  121.3520 C.3   190  TYR190      0.0534
    154  CG        33.9510    5.0530  120.7620 C.ar  190  TYR190     -0.0201
    155  CD1       33.9280    3.7220  121.1830 C.ar  190  TYR190     -0.0009
    156  CD2       34.9160    5.4320  119.8230 C.ar  190  TYR190     -0.0009
    157  CE1       34.8420    2.7970  120.6910 C.ar  190  TYR190      0.0417
    158  CE2       35.8380    4.5110  119.3220 C.ar  190  TYR190      0.0417
    159  CZ        35.7940    3.1970  119.7630 C.ar  190  TYR190      0.1957
    160  OH        36.6990    2.2780  119.2790 O.3   190  TYR190     -0.2866
    161  N         30.6940    9.7590  124.4670 N.3   192  MET192     -0.1245
    162  CA        31.6430   10.6740  125.0900 C.3   192  MET192      0.1570
    163  C         31.0050   10.9970  126.4370 C.2   192  MET192      0.2261
    164  O         31.6900   11.2630  127.4190 O.2   192  MET192     -0.2867
    165  CB        31.8240   11.9380  124.2520 C.3   192  MET192      0.0387
    166  CG        32.4130   11.6800  122.8620 C.3   192  MET192      0.0595
    167  SD        34.0560   10.9190  122.8710 S.3   192  MET192     -0.1393
    168  CE        33.6410    9.2020  122.6900 C.3   192  MET192      0.0692
    169  N         31.9950    2.3150  128.3770 N.3   212  ASN212     -0.1240
    170  CA        33.3100    2.3870  127.7500 C.3   212  ASN212      0.1653
    171  C         34.4050    1.4140  128.1870 C.2   212  ASN212      0.2266
    172  O         35.5850    1.7710  128.1680 O.2   212  ASN212     -0.2867
    173  CB        33.8310    3.8270  127.8670 C.3   212  ASN212      0.1155
    174  CG        33.0180    4.8140  127.0370 C.2   212  ASN212      0.2627
    175  OD1       31.8640    4.5580  126.6890 O.2   212  ASN212     -0.2716
    176  ND2       33.6190    5.9530  126.7250 N.am  212  ASN212     -0.0877
    177  N         37.1850   -1.0510  127.7800 N.3   214  MET214     -0.1245
    178  CA        38.0280   -1.3710  126.6350 C.3   214  MET214      0.1570
    179  C         39.0370   -2.4720  126.9060 C.2   214  MET214      0.2261
    180  O         39.8610   -2.7840  126.0540 O.2   214  MET214     -0.2867
    181  CB        38.7790   -0.1250  126.1660 C.3   214  MET214      0.0387
    182  CG        37.9000    0.9710  125.5920 C.3   214  MET214      0.0595
    183  SD        36.9070    0.4460  124.1760 S.3   214  MET214     -0.1393
    184  CE        38.1180   -0.0940  123.1160 C.3   214  MET214      0.0692
    185  N         45.6330   -3.3320  129.0520 N.3   217  LEU217     -0.1245
    186  CA        46.8730   -3.3600  128.2840 C.3   217  LEU217      0.1561
    187  C         47.9430   -3.8770  129.2390 C.2   217  LEU217      0.2260
    188  O         48.3430   -3.1810  130.1700 O.2   217  LEU217     -0.2867
    189  CB        47.2600   -1.9640  127.7920 C.3   217  LEU217      0.0270
    190  CG        48.6300   -1.8720  127.1060 C.3   217  LEU217      0.0019
    191  CD1       48.6360   -2.7020  125.8400 C.3   217  LEU217      0.0001
    192  CD2       48.9470   -0.4290  126.7760 C.3   217  LEU217      0.0001
    193  N         52.0250    6.0310  125.6180 N.3   236  ILE236     -0.1245
    194  CA        51.0980    5.6270  124.5660 C.3   236  ILE236      0.1561
    195  C         50.4470    6.8410  123.9080 C.2   236  ILE236      0.2260
    196  O         49.9490    7.7360  124.5970 O.2   236  ILE236     -0.2867
    197  CB        49.9670    4.7430  125.1330 C.3   236  ILE236      0.0252
    198  CG1       50.5440    3.6310  126.0100 C.3   236  ILE236      0.0019
    199  CG2       49.1580    4.1470  123.9910 C.3   236  ILE236      0.0019
    200  CD1       51.3910    2.6370  125.2570 C.3   236  ILE236      0.0001
    201  N         47.5910    8.2630  120.9750 N.3   238  HIS238     -0.1241
    202  CA        46.3990    7.8760  120.2440 C.3   238  HIS238      0.1621
    203  C         45.9720    8.9450  119.2620 C.2   238  HIS238      0.2264
    204  O         46.1560   10.1340  119.5030 O.2   238  HIS238     -0.2867
    205  CB        45.2660    7.5790  121.2330 C.3   238  HIS238      0.0745
    206  CG        43.9360    7.3430  120.5860 C.ar  238  HIS238      0.0817
    207  ND1       43.1150    8.3710  120.1750 N.ar  238  HIS238     -0.2268
    208  CD2       43.2940    6.1950  120.2610 C.ar  238  HIS238      0.1154
    209  CE1       42.0240    7.8670  119.6240 C.ar  238  HIS238      0.1986
    210  NE2       42.1080    6.5480  119.6640 N.ar  238  HIS238     -0.2212
    211  N         35.9790    8.9980  133.3680 N.3   260  HIS260     -0.1241
    212  CA        34.5930    8.6200  133.1100 C.3   260  HIS260      0.1621
    213  C         33.5450    9.4400  133.8570 C.2   260  HIS260      0.2264
    214  O         32.3760    9.0720  133.8870 O.2   260  HIS260     -0.2867
    215  CB        34.3990    7.1390  133.4360 C.3   260  HIS260      0.0745
    216  CG        35.3140    6.2320  132.6760 C.ar  260  HIS260      0.0817
    217  ND1       35.2340    6.0710  131.3100 N.ar  260  HIS260     -0.2268
    218  CD2       36.3460    5.4600  133.0880 C.ar  260  HIS260      0.1154
    219  CE1       36.1790    5.2390  130.9110 C.ar  260  HIS260      0.1986
    220  NE2       36.8670    4.8550  131.9700 N.ar  260  HIS260     -0.2212
@<TRIPOS>BOND
     1    48    49    1
     2    48    51    1
     3    48    47    1
     4   136   135    2
     5   124   123    1
     6   124   125    2
     7   123   122    1
     8   123   126    1
     9    49    50    2
    10   135   134    1
    11   133   134    1
    12    61    60    2
    13    51    52    1
    14    58    59    1
    15   126   127    1
    16   134   137    1
    17    60    59    1
    18    59    62    1
    19    52    53   ar
    20    52    54   ar
    21   127   129   ar
    22   127   128   ar
    23   137   138    1
    24    53    55   ar
    25    64    65    1
    26    67    66    2
    27    54    56   ar
    28   129   131   ar
    29    62    63    1
    30   141   142    1
    31   128   130   ar
    32   138   140    1
    33   138   139    1
    34    66    65    1
    35    65    68    1
    36   121   119    1
    37    55    57   ar
    38   148   146    1
    39   142   143    1
    40   142   145    1
    41    56    57   ar
    42   131   132   ar
    43   112   111    2
    44   108   105    1
    45   146   145    1
    46   146   147    1
    47   203   204    2
    48   203   202    1
    49   130   132   ar
    50   160   159    1
    51   120   119    1
    52   158   159   ar
    53   158   156   ar
    54    68    69    1
    55    68    70    1
    56   143   144    2
    57    71    69    1
    58   209   210   ar
    59   209   207   ar
    60   210   208   ar
    61   119   116    1
    62   159   157   ar
    63   156   154   ar
    64   149   150    1
    65   105   104    1
    66   105   106    1
    67   116   117    1
    68   116   115    1
    69    72    73    1
    70   207   206   ar
    71   202   201    1
    72   202   205    1
    73   208   206   ar
    74   111   115   am
    75   111   110    1
    76   109   106   am
    77   109   110    1
    78    75    74    2
    79   206   205    1
    80   157   155   ar
    81   117   118    2
    82   154   155   ar
    83   154   153    1
    84   106   107    2
    85   110   113    1
    86   150   153    1
    87   150   151    1
    88   152   151    2
    89    74    73    1
    90    73    76    1
    91    76    77    1
    92   113   114    1
    93    77    78    1
    94    99   101   ar
    95    99    97   ar
    96   101   102   ar
    97   168   167    1
    98    78    79    1
    99   166   167    1
   100   166   165    1
   101   184   183    1
   102    45    44    1
   103    96    97    1
   104    96    93    1
   105    83    82    2
   106    97    98   ar
   107   102   103    1
   108   102   100   ar
   109    87    89   ar
   110    87    85   ar
   111   195   194    1
   112   195   196    2
   113   199   197    1
   114    46    44    1
   115    89    90   ar
   116   183   182    1
   117   165   162    1
   118    84    85    1
   119    84    81    1
   120    44    43    1
   121    95    94    2
   122    92    93    1
   123   161   162    1
   124    82    81    1
   125   194   197    1
   126   194   193    1
   127    98   100   ar
   128    85    86   ar
   129     7     5    1
   130    93    94    1
   131     8     6    1
   132    80    81    1
   133   162   163    1
   134   197   198    1
   135     6     5    1
   136   200   198    1
   137    90    91    1
   138    90    88   ar
   139    43    40    1
   140   182   181    1
   141     5     2    1
   142    86    88   ar
   143     1     2    1
   144   191   190    1
   145   180   179    2
   146   181   178    1
   147   163   164    2
   148    30    28    1
   149    29    27    1
   150     2     3    1
   151   178   179    1
   152   178   177    1
   153   175   174    2
   154   176   174   am
   155   192   190    1
   156    40    39    1
   157    40    41    1
   158   174   173    1
   159   190   189    1
   160    42    41    2
   161    39    33   am
   162    28    27    1
   163    27    24    1
   164   170   173    1
   165   170   171    1
   166   170   169    1
   167   189   186    1
   168     3     4    2
   169    34    33    2
   170    33    32    1
   171    21    22   ar
   172    21    19   ar
   173   172   171    2
   174   186   185    1
   175   186   187    1
   176    22    20   ar
   177    32    31    1
   178    32    35    1
   179    31    25   am
   180    19    16   ar
   181    25    24    1
   182    25    26    2
   183    24    23    1
   184   187   188    2
   185    20    18   ar
   186    35    36    1
   187    16    18   ar
   188    16    14   ar
   189    18    17   ar
   190    37    36    2
   191    36    38   am
   192   219   217   ar
   193   219   220   ar
   194    12    11    2
   195   217   216   ar
   196    14    13    1
   197    14    15   ar
   198    13    10    1
   199   220   218   ar
   200    17    15   ar
   201    11    10    1
   202    10     9    1
   203   216   218   ar
   204   216   215    1
   205   212   211    1
   206   212   215    1
   207   212   213    1
   208   213   214    2
