@<TRIPOS>MOLECULE
tmp/1nd2A00.pdb
 211 202 0 0 0
SMALL
GASTEIGER

@<TRIPOS>ATOM
      1  N         48.0950    9.4930  125.9980 N.3    77  ILE77      -0.1245
      2  CA        46.9440    9.0690  126.7880 C.3    77  ILE77       0.1561
      3  C         47.3530    8.2480  128.0110 C.2    77  ILE77       0.2260
      4  O         46.5300    7.9860  128.8870 O.2    77  ILE77      -0.2867
      5  CB        45.9660    8.2160  125.9540 C.3    77  ILE77       0.0252
      6  CG1       46.6620    6.9410  125.4810 C.3    77  ILE77       0.0019
      7  CG2       45.4530    9.0150  124.7730 C.3    77  ILE77       0.0019
      8  CD1       45.7290    5.9680  124.7990 C.3    77  ILE77       0.0001
      9  N         47.2670   -1.8420  132.6570 N.3    96  TRP96      -0.1241
     10  CA        46.5340   -0.5810  132.6400 C.3    96  TRP96       0.1605
     11  C         45.1450   -0.7540  132.0360 C.2    96  TRP96       0.2264
     12  O         45.0060   -1.3100  130.9480 O.2    96  TRP96      -0.2867
     13  CB        47.3040    0.4660  131.8280 C.3    96  TRP96       0.0550
     14  CG        46.5560    1.7610  131.6490 C.ar   96  TRP96       0.0003
     15  CD1       46.0630    2.5630  132.6380 C.ar   96  TRP96       0.0946
     16  CD2       46.2370    2.4110  130.4090 C.ar   96  TRP96       0.0152
     17  NE1       45.4570    3.6730  132.0920 N.ar   96  TRP96      -0.2442
     18  CE2       45.5490    3.6040  130.7270 C.ar   96  TRP96       0.0810
     19  CE3       46.4640    2.1030  129.0600 C.ar   96  TRP96       0.0012
     20  CZ2       45.0880    4.4920  129.7450 C.ar   96  TRP96       0.0191
     21  CZ3       46.0020    2.9880  128.0820 C.ar   96  TRP96       0.0001
     22  CH2       45.3240    4.1660  128.4330 C.ar   96  TRP96       0.0015
     23  N         42.6490    0.3980  129.9280 N.3    98  ILE98      -0.1231
     24  CA        42.6060    1.3590  128.8320 C.3    98  ILE98       0.1692
     25  C         41.4400    2.3480  128.8200 C.2    98  ILE98       0.2592
     26  O         40.2930    1.9780  129.0550 O.2    98  ILE98      -0.2718
     27  CB        42.6320    0.6160  127.4850 C.3    98  ILE98       0.0266
     28  CG1       43.8400   -0.3220  127.4480 C.3    98  ILE98       0.0019
     29  CG2       42.7070    1.6100  126.3390 C.3    98  ILE98       0.0020
     30  CD1       43.8640   -1.2500  126.2570 C.3    98  ILE98       0.0001
     31  N         41.7590    3.6100  128.5340 N.am   99  ASN99      -0.1960
     32  CA        40.7650    4.6800  128.4510 C.3    99  ASN99       0.1819
     33  C         41.4220    5.9600  127.9390 C.2    99  ASN99       0.2621
     34  O         42.6470    6.0690  127.9150 O.2    99  ASN99      -0.2715
     35  CB        40.1320    4.9460  129.8220 C.3    99  ASN99       0.1195
     36  CG        41.0780    5.6490  130.7750 C.2    99  ASN99       0.2630
     37  OD1       41.3510    6.8430  130.6400 O.2    99  ASN99      -0.2716
     38  ND2       41.5930    4.9080  131.7430 N.am   99  ASN99      -0.0877
     39  N         40.6030    6.9210  127.5230 N.am  100  LEU100     -0.1963
     40  CA        41.1040    8.2020  127.0270 C.3   100  LEU100      0.1728
     41  C         40.7050    9.2990  128.0040 C.2   100  LEU100      0.2616
     42  O         40.5220   10.4500  127.6130 O.2   100  LEU100     -0.2715
     43  CB        40.5020    8.5220  125.6550 C.3   100  LEU100      0.0311
     44  CG        40.8060    7.6010  124.4740 C.3   100  LEU100      0.0022
     45  CD1       40.1510    8.1670  123.2290 C.3   100  LEU100      0.0001
     46  CD2       42.3040    7.4900  124.2650 C.3   100  LEU100      0.0001
     47  N         40.5910    8.9370  129.2770 N.am  101  GLN101     -0.1977
     48  CA        40.1640    9.8660  130.3170 C.3   101  GLN101      0.1601
     49  C         41.2650   10.4560  131.1950 C.2   101  GLN101      0.2287
     50  O         41.0200   11.4160  131.9210 O.2   101  GLN101     -0.2864
     51  CB        39.1680    9.1600  131.2380 C.3   101  GLN101      0.0394
     52  CG        37.9640    8.5630  130.5430 C.3   101  GLN101      0.0908
     53  CD        36.9380    9.6050  130.1800 C.2   101  GLN101      0.2608
     54  OE1       36.3660   10.2610  131.0500 O.2   101  GLN101     -0.2717
     55  NE2       36.6990    9.7690  128.8880 N.am  101  GLN101     -0.0878
     56  N         35.3480    6.1960  115.4150 N.3   118  PHE118     -0.1241
     57  CA        36.6290    6.2940  114.7280 C.3   118  PHE118      0.1605
     58  C         37.5200    5.0860  114.9650 C.2   118  PHE118      0.2264
     59  O         37.3030    4.3180  115.9030 O.2   118  PHE118     -0.2867
     60  CB        37.3620    7.5530  115.2000 C.3   118  PHE118      0.0534
     61  CG        37.5400    7.6270  116.6990 C.ar  118  PHE118     -0.0203
     62  CD1       38.5710    6.9330  117.3300 C.ar  118  PHE118     -0.0042
     63  CD2       36.6590    8.3730  117.4820 C.ar  118  PHE118     -0.0042
     64  CE1       38.7180    6.9800  118.7220 C.ar  118  PHE118     -0.0003
     65  CE2       36.7980    8.4260  118.8710 C.ar  118  PHE118     -0.0003
     66  CZ        37.8280    7.7300  119.4920 C.ar  118  PHE118     -0.0000
     67  N         41.4830    3.7360  115.6270 N.3   120  SER120     -0.1217
     68  CA        42.5630    4.3350  116.3940 C.3   120  SER120      0.1889
     69  C         43.9530    3.9010  115.9810 C.2   120  SER120      0.2288
     70  O         44.1900    2.7300  115.6960 O.2   120  SER120     -0.2866
     71  CB        42.3880    4.0180  117.8830 C.3   120  SER120      0.2089
     72  OG        41.1440    4.4780  118.3720 O.3   120  SER120     -0.2183
     73  N         47.5910    3.6360  117.4430 N.3   122  ILE122     -0.1245
     74  CA        48.3320    3.6870  118.6910 C.3   122  ILE122      0.1561
     75  C         49.8280    3.6580  118.3900 C.2   122  ILE122      0.2260
     76  O         50.3130    2.7800  117.6720 O.2   122  ILE122     -0.2867
     77  CB        47.9630    2.4940  119.6260 C.3   122  ILE122      0.0252
     78  CG1       46.6710    2.7900  120.3910 C.3   122  ILE122      0.0019
     79  CG2       49.0500    2.2800  120.6620 C.3   122  ILE122      0.0019
     80  CD1       45.4980    3.1100  119.5370 C.3   122  ILE122      0.0001
     81  N         53.6460    3.8790  120.3120 N.3   124  MET124     -0.1245
     82  CA        54.2870    3.7790  121.6130 C.3   124  MET124      0.1570
     83  C         55.7180    4.2850  121.6180 C.2   124  MET124      0.2261
     84  O         56.5110    3.9680  120.7290 O.2   124  MET124     -0.2867
     85  CB        54.2500    2.3370  122.0980 C.3   124  MET124      0.0387
     86  CG        52.8470    1.7980  122.2070 C.3   124  MET124      0.0595
     87  SD        52.8230    0.0780  122.6560 S.3   124  MET124     -0.1393
     88  CE        51.5370    0.0780  123.8070 C.3   124  MET124      0.0692
     89  N         47.3840   -6.7890  124.3510 N.3   144  TYR144     -0.1241
     90  CA        46.0470   -6.2430  124.4820 C.3   144  TYR144      0.1605
     91  C         45.1420   -7.3550  124.9880 C.2   144  TYR144      0.2264
     92  O         44.9160   -8.3480  124.2990 O.2   144  TYR144     -0.2867
     93  CB        45.5430   -5.7160  123.1350 C.3   144  TYR144      0.0534
     94  CG        44.1120   -5.2290  123.1730 C.ar  144  TYR144     -0.0201
     95  CD1       43.6880   -4.3270  124.1490 C.ar  144  TYR144     -0.0009
     96  CD2       43.1750   -5.6830  122.2460 C.ar  144  TYR144     -0.0009
     97  CE1       42.3640   -3.8910  124.2050 C.ar  144  TYR144      0.0417
     98  CE2       41.8450   -5.2540  122.2900 C.ar  144  TYR144      0.0417
     99  CZ        41.4460   -4.3590  123.2760 C.ar  144  TYR144      0.1957
    100  OH        40.1300   -3.9510  123.3480 O.3   144  TYR144     -0.2866
    101  N         50.4100    0.4500  115.7030 N.3   179  PHE179     -0.1241
    102  CA        49.4140   -0.4310  115.1130 C.3   179  PHE179      0.1605
    103  C         48.0710    0.2820  115.0990 C.2   179  PHE179      0.2264
    104  O         47.8880    1.2950  115.7750 O.2   179  PHE179     -0.2867
    105  CB        49.2990   -1.7340  115.9070 C.3   179  PHE179      0.0534
    106  CG        48.9700   -1.5340  117.3550 C.ar  179  PHE179     -0.0203
    107  CD1       49.9830   -1.3480  118.2910 C.ar  179  PHE179     -0.0042
    108  CD2       47.6490   -1.5090  117.7840 C.ar  179  PHE179     -0.0042
    109  CE1       49.6830   -1.1410  119.6360 C.ar  179  PHE179     -0.0003
    110  CE2       47.3390   -1.3020  119.1240 C.ar  179  PHE179     -0.0003
    111  CZ        48.3600   -1.1170  120.0510 C.ar  179  PHE179     -0.0000
    112  N         43.7440    0.0460  115.4250 N.3   181  LEU181     -0.1245
    113  CA        42.6490   -0.6670  116.0620 C.3   181  LEU181      0.1561
    114  C         41.3840   -0.1830  115.3750 C.2   181  LEU181      0.2260
    115  O         41.2310    1.0070  115.1090 O.2   181  LEU181     -0.2867
    116  CB        42.5710   -0.3320  117.5530 C.3   181  LEU181      0.0270
    117  CG        43.5670   -1.0110  118.4860 C.3   181  LEU181      0.0019
    118  CD1       43.4680   -0.3970  119.8660 C.3   181  LEU181      0.0001
    119  CD2       43.2780   -2.5000  118.5430 C.3   181  LEU181      0.0001
    120  N         36.0610   -0.1170  118.1500 N.3   184  LEU184     -0.1245
    121  CA        35.8330   -1.2300  119.0780 C.3   184  LEU184      0.1561
    122  C         34.5000   -1.4290  119.7960 C.2   184  LEU184      0.2260
    123  O         34.2520   -2.5070  120.3370 O.2   184  LEU184     -0.2867
    124  CB        36.9100   -1.1840  120.1630 C.3   184  LEU184      0.0270
    125  CG        38.3710   -1.1030  119.7320 C.3   184  LEU184      0.0019
    126  CD1       39.2090   -0.6750  120.9120 C.3   184  LEU184      0.0001
    127  CD2       38.8400   -2.4410  119.1930 C.3   184  LEU184      0.0001
    128  N         31.1110    5.6940  120.1520 N.3   190  TYR190     -0.1227
    129  CA        31.5910    5.7500  121.5220 C.3   190  TYR190      0.1736
    130  C         30.8060    6.8440  122.2310 C.2   190  TYR190      0.2595
    131  O         30.4640    7.8590  121.6270 O.2   190  TYR190     -0.2718
    132  CB        33.0760    6.1200  121.5740 C.3   190  TYR190      0.0548
    133  CG        34.0350    5.0950  121.0080 C.ar  190  TYR190     -0.0200
    134  CD1       34.0690    3.7890  121.4980 C.ar  190  TYR190     -0.0009
    135  CD2       34.9490    5.4500  120.0110 C.ar  190  TYR190     -0.0009
    136  CE1       34.9910    2.8630  121.0120 C.ar  190  TYR190      0.0417
    137  CE2       35.8740    4.5340  119.5190 C.ar  190  TYR190      0.0417
    138  CZ        35.8900    3.2420  120.0220 C.ar  190  TYR190      0.1957
    139  OH        36.7950    2.3340  119.5250 O.3   190  TYR190     -0.2866
    140  N         30.5170    6.6300  123.5090 N.am  191  TYR191     -0.1962
    141  CA        29.8120    7.6210  124.3090 C.3   191  TYR191      0.1771
    142  C         30.8610    8.5270  124.9460 C.2   191  TYR191      0.2619
    143  O         31.7230    8.0400  125.6700 O.2   191  TYR191     -0.2715
    144  CB        29.0330    6.9470  125.4380 C.3   191  TYR191      0.0574
    145  CG        27.7530    6.2640  125.0280 C.ar  191  TYR191     -0.0198
    146  CD1       26.5490    6.9720  124.9680 C.ar  191  TYR191     -0.0009
    147  CD2       27.7320    4.9010  124.7280 C.ar  191  TYR191     -0.0009
    148  CE1       25.3540    6.3370  124.6220 C.ar  191  TYR191      0.0417
    149  CE2       26.5460    4.2570  124.3800 C.ar  191  TYR191      0.0417
    150  CZ        25.3620    4.9790  124.3310 C.ar  191  TYR191      0.1957
    151  OH        24.1880    4.3370  124.0030 O.3   191  TYR191     -0.2866
    152  N         30.8180    9.8270  124.6740 N.am  192  MET192     -0.1977
    153  CA        31.7700   10.7280  125.3220 C.3   192  MET192      0.1605
    154  C         31.1240   11.0540  126.6670 C.2   192  MET192      0.2287
    155  O         31.8060   11.3480  127.6490 O.2   192  MET192     -0.2864
    156  CB        31.9700   12.0090  124.5070 C.3   192  MET192      0.0413
    157  CG        32.5390   11.7780  123.1110 C.3   192  MET192      0.0598
    158  SD        34.1590   10.9840  123.1080 S.3   192  MET192     -0.1393
    159  CE        33.7180    9.3090  122.7910 C.3   192  MET192      0.0692
    160  N         32.0190    2.2600  128.4920 N.3   212  ASN212     -0.1240
    161  CA        33.3310    2.3040  127.8570 C.3   212  ASN212      0.1653
    162  C         34.4240    1.3450  128.3190 C.2   212  ASN212      0.2266
    163  O         35.5490    1.7720  128.5700 O.2   212  ASN212     -0.2867
    164  CB        33.8590    3.7420  127.9340 C.3   212  ASN212      0.1155
    165  CG        32.9290    4.7480  127.2540 C.2   212  ASN212      0.2627
    166  OD1       31.7260    4.5100  127.1080 O.2   212  ASN212     -0.2716
    167  ND2       33.4820    5.8860  126.8550 N.am  212  ASN212     -0.0877
    168  N         37.2430   -1.0180  127.5860 N.3   214  MET214     -0.1245
    169  CA        38.1080   -1.3200  126.4470 C.3   214  MET214      0.1570
    170  C         39.1190   -2.4180  126.7390 C.2   214  MET214      0.2261
    171  O         39.9910   -2.7010  125.9160 O.2   214  MET214     -0.2867
    172  CB        38.8670   -0.0660  126.0180 C.3   214  MET214      0.0387
    173  CG        37.9830    1.0530  125.5250 C.3   214  MET214      0.0595
    174  SD        37.0920    0.5640  124.0360 S.3   214  MET214     -0.1393
    175  CE        35.3490    0.3540  124.6610 C.3   214  MET214      0.0692
    176  N         45.7350   -3.2780  129.0280 N.3   217  LEU217     -0.1245
    177  CA        47.0150   -3.3260  128.3340 C.3   217  LEU217      0.1561
    178  C         48.0090   -3.8920  129.3400 C.2   217  LEU217      0.2260
    179  O         48.3040   -3.2530  130.3520 O.2   217  LEU217     -0.2867
    180  CB        47.4700   -1.9300  127.9070 C.3   217  LEU217      0.0270
    181  CG        48.9120   -1.8690  127.3840 C.3   217  LEU217      0.0019
    182  CD1       49.0390   -2.7180  126.1350 C.3   217  LEU217      0.0001
    183  CD2       49.3020   -0.4380  127.0820 C.3   217  LEU217      0.0001
    184  N         52.0800    6.0790  125.7130 N.3   236  ILE236     -0.1245
    185  CA        51.1250    5.6690  124.6910 C.3   236  ILE236      0.1561
    186  C         50.4530    6.8690  124.0310 C.2   236  ILE236      0.2260
    187  O         49.9200    7.7490  124.7130 O.2   236  ILE236     -0.2867
    188  CB        50.0090    4.7800  125.2940 C.3   236  ILE236      0.0252
    189  CG1       50.6080    3.7290  126.2320 C.3   236  ILE236      0.0019
    190  CG2       49.2280    4.1110  124.1790 C.3   236  ILE236      0.0019
    191  CD1       51.6210    2.8360  125.5820 C.3   236  ILE236      0.0001
    192  N         47.6360    8.2610  121.0720 N.3   238  HIS238     -0.1241
    193  CA        46.4440    7.9020  120.3260 C.3   238  HIS238      0.1621
    194  C         46.0500    8.9600  119.3060 C.2   238  HIS238      0.2264
    195  O         46.1510   10.1600  119.5590 O.2   238  HIS238     -0.2867
    196  CB        45.2890    7.6660  121.2990 C.3   238  HIS238      0.0745
    197  CG        43.9660    7.4500  120.6310 C.ar  238  HIS238      0.0817
    198  ND1       43.2280    8.4810  120.0910 N.ar  238  HIS238     -0.2268
    199  CD2       43.2590    6.3180  120.4010 C.ar  238  HIS238      0.1154
    200  CE1       42.1210    7.9940  119.5590 C.ar  238  HIS238      0.1986
    201  NE2       42.1160    6.6830  119.7330 N.ar  238  HIS238     -0.2212
    202  N         36.0700    9.0240  133.5920 N.3   260  HIS260     -0.1241
    203  CA        34.6810    8.6450  133.3500 C.3   260  HIS260      0.1621
    204  C         33.6400    9.4350  134.1310 C.2   260  HIS260      0.2264
    205  O         32.5080    8.9820  134.2880 O.2   260  HIS260     -0.2867
    206  CB        34.4930    7.1530  133.6360 C.3   260  HIS260      0.0745
    207  CG        35.3220    6.2680  132.7620 C.ar  260  HIS260      0.0817
    208  ND1       35.2030    6.2580  131.3890 N.ar  260  HIS260     -0.2268
    209  CD2       36.2900    5.3710  133.0630 C.ar  260  HIS260      0.1154
    210  CE1       36.0620    5.3930  130.8800 C.ar  260  HIS260      0.1986
    211  NE2       36.7320    4.8410  131.8760 N.ar  260  HIS260     -0.2212
@<TRIPOS>BOND
     1    57    58    1
     2    57    60    1
     3    57    56    1
     4    58    59    2
     5   103   102    1
     6   103   104    2
     7   115   114    2
     8   102   101    1
     9   102   105    1
    10    60    61    1
    11   114   113    1
    12   112   113    1
    13    67    68    1
    14    70    69    2
    15   105   106    1
    16    69    68    1
    17   113   116    1
    18    68    71    1
    19    61    62   ar
    20    61    63   ar
    21    62    64   ar
    22   106   108   ar
    23   106   107   ar
    24    73    74    1
    25    63    65   ar
    26   116   117    1
    27    76    75    2
    28   108   110   ar
    29    71    72    1
    30   120   121    1
    31   107   109   ar
    32    75    74    1
    33   117   119    1
    34   117   118    1
    35    74    77    1
    36    64    66   ar
    37    65    66   ar
    38   121   122    1
    39   121   124    1
    40   110   111   ar
    41   127   125    1
    42   194   195    2
    43   194   193    1
    44   137   135   ar
    45   137   138   ar
    46   139   138    1
    47    80    78    1
    48   200   201   ar
    49   200   198   ar
    50    77    78    1
    51    77    79    1
    52   109   111   ar
    53   125   124    1
    54   125   126    1
    55   201   199   ar
    56   122   123    2
    57   135   133   ar
    58   138   136   ar
    59   198   197   ar
    60   128   129    1
    61    81    82    1
    62   193   192    1
    63   193   196    1
    64   199   197   ar
    65   197   196    1
    66    84    83    2
    67   133   134   ar
    68   133   132    1
    69   136   134   ar
    70   129   132    1
    71   129   130    1
    72    82    83    1
    73    82    85    1
    74   131   130    2
    75    85    86    1
    76    86    87    1
    77   130   140   am
    78    96    98   ar
    79    96    94   ar
    80    98    99   ar
    81    87    88    1
    82   159   158    1
    83   158   157    1
    84   157   156    1
    85    93    94    1
    86    93    90    1
    87    94    95   ar
    88    45    44    1
    89    99   100    1
    90    99    97   ar
    91   140   141    1
    92   151   150    1
    93   186   185    1
    94   186   187    2
    95   174   175    1
    96   174   173    1
    97    95    97   ar
    98   190   188    1
    99    46    44    1
   100    92    91    2
   101   141   142    1
   102   141   144    1
   103   150   149   ar
   104   150   148   ar
   105    89    90    1
   106   149   147   ar
   107    44    43    1
   108    90    91    1
   109   156   153    1
   110   148   146   ar
   111   152   142   am
   112   152   153    1
   113   185   188    1
   114   185   184    1
   115   147   145   ar
   116     7     5    1
   117     8     6    1
   118   142   143    2
   119   146   145   ar
   120   145   144    1
   121   188   189    1
   122   153   154    1
   123     6     5    1
   124   173   172    1
   125   191   189    1
   126    43    40    1
   127   171   170    2
   128     5     2    1
   129     1     2    1
   130   172   169    1
   131   182   181    1
   132    30    28    1
   133    29    27    1
   134   169   170    1
   135   169   168    1
   136   154   155    2
   137     2     3    1
   138   167   165   am
   139    40    39    1
   140    40    41    1
   141   183   181    1
   142   166   165    2
   143   165   164    1
   144   181   180    1
   145    28    27    1
   146    27    24    1
   147    39    33   am
   148    42    41    2
   149   161   164    1
   150   161   162    1
   151   161   160    1
   152   180   177    1
   153    34    33    2
   154    33    32    1
   155    41    47   am
   156     3     4    2
   157    21    22   ar
   158    21    19   ar
   159   162   163    2
   160   177   176    1
   161   177   178    1
   162    22    20   ar
   163    32    31    1
   164    32    35    1
   165    31    25   am
   166    25    24    1
   167    25    26    2
   168    24    23    1
   169    55    53   am
   170    19    16   ar
   171    47    48    1
   172   178   179    2
   173    20    18   ar
   174    35    36    1
   175    53    52    1
   176    53    54    2
   177    48    49    1
   178    48    51    1
   179    16    18   ar
   180    16    14   ar
   181    52    51    1
   182    37    36    2
   183    18    17   ar
   184    36    38   am
   185   210   208   ar
   186   210   211   ar
   187    12    11    2
   188    49    50    2
   189   208   207   ar
   190    14    13    1
   191    14    15   ar
   192    13    10    1
   193   211   209   ar
   194    11    10    1
   195    17    15   ar
   196    10     9    1
   197   207   209   ar
   198   207   206    1
   199   203   202    1
   200   203   206    1
   201   203   204    1
   202   204   205    2
