@<TRIPOS>MOLECULE
tmp/1ndeA00.pdb
 212 202 0 0 0
SMALL
GASTEIGER

@<TRIPOS>ATOM
      1  N        115.3590   13.4610 -105.9950 N.3    33  MET33      -0.1245
      2  CA       115.2310   12.0250 -105.8110 C.3    33  MET33       0.1570
      3  C        115.4980   11.5110 -104.4080 C.2    33  MET33       0.2261
      4  O        115.1310   10.3850 -104.0840 O.2    33  MET33      -0.2867
      5  CB       116.0700   11.2750 -106.8530 C.3    33  MET33       0.0387
      6  CG       115.2360   10.9870 -108.1000 C.3    33  MET33       0.0595
      7  SD       116.0990   10.5200 -109.5970 S.3    33  MET33      -0.1393
      8  CE       116.0150   12.0450 -110.5130 C.3    33  MET33       0.0692
      9  N        111.8350   12.1450 -103.2350 N.3    36  LEU36      -0.1231
     10  CA       110.9170   11.1960 -103.8640 C.3    36  LEU36       0.1693
     11  C        111.0550    9.7670 -103.3500 C.2    36  LEU36       0.2592
     12  O        110.0970    9.0000 -103.3940 O.2    36  LEU36      -0.2718
     13  CB       111.0810   11.1980 -105.3840 C.3    36  LEU36       0.0284
     14  CG       110.5900   12.4480 -106.1120 C.3    36  LEU36       0.0019
     15  CD1      110.6340   12.2200 -107.6170 C.3    36  LEU36       0.0001
     16  CD2      109.1820   12.7610 -105.6580 C.3    36  LEU36       0.0001
     17  N        112.2370    9.4060 -102.8650 N.am   37  THR37      -0.1953
     18  CA       112.4400    8.0620 -102.3480 C.3    37  THR37       0.1897
     19  C        111.8990    7.9910 -100.9410 C.2    37  THR37       0.2313
     20  O        111.2790    7.0040 -100.5500 O.2    37  THR37      -0.2863
     21  CB       113.9230    7.6730 -102.2720 C.3    37  THR37       0.1794
     22  OG1      114.5800    8.5330 -101.3380 O.3    37  THR37      -0.2208
     23  CG2      114.5800    7.7860 -103.6260 C.3    37  THR37       0.0378
     24  N        109.6420    9.7740  -99.9370 N.3    39  LEU39      -0.1231
     25  CA       108.2150   10.0450 -100.0650 C.3    39  LEU39       0.1693
     26  C        107.4600    8.7530 -100.3470 C.2    39  LEU39       0.2592
     27  O        106.5990    8.3370  -99.5670 O.2    39  LEU39      -0.2718
     28  CB       107.9370   11.0250 -101.2060 C.3    39  LEU39       0.0284
     29  CG       106.7350   11.9600 -100.9790 C.3    39  LEU39       0.0019
     30  CD1      106.3530   12.6590 -102.2740 C.3    39  LEU39       0.0001
     31  CD2      105.5640   11.1710 -100.4420 C.3    39  LEU39       0.0001
     32  N        107.7910    8.1250 -101.4720 N.am   40  ALA40      -0.1966
     33  CA       107.1470    6.8850 -101.8850 C.3    40  ALA40       0.1728
     34  C        107.3160    5.7230 -100.9120 C.2    40  ALA40       0.2616
     35  O        106.5660    4.7450 -100.9780 O.2    40  ALA40      -0.2715
     36  CB       107.6340    6.4900 -103.2460 C.3    40  ALA40       0.0334
     37  N        108.2940    5.8090 -100.0160 N.am   41  ASP41      -0.1971
     38  CA       108.4720    4.7370  -99.0530 C.3    41  ASP41       0.1709
     39  C        107.5540    4.9180  -97.8750 C.2    41  ASP41       0.2293
     40  O        107.0090    3.9440  -97.3670 O.2    41  ASP41      -0.2864
     41  CB       109.9150    4.6470  -98.6080 C.3    41  ASP41       0.1436
     42  CG       110.7560    3.8800  -99.5910 C.2    41  ASP41       0.3671
     43  OD1      111.1230    4.4470 -100.6330 O.co2  41  ASP41      -0.2456
     44  OD2      111.0240    2.6920  -99.3350 O.co2  41  ASP41      -0.2456
     45  N        104.7470    6.4840  -98.0410 N.3    43  GLU43      -0.1231
     46  CA       103.4650    6.1860  -98.6630 C.3    43  GLU43       0.1699
     47  C        103.2140    4.7010  -98.8680 C.2    43  GLU43       0.2592
     48  O        102.1110    4.2130  -98.6010 O.2    43  GLU43      -0.2718
     49  CB       103.3490    6.9060  -99.9960 C.3    43  GLU43       0.0402
     50  CG       102.9270    8.3390  -99.8600 C.3    43  GLU43       0.1161
     51  CD       102.7950    9.0330 -101.2060 C.2    43  GLU43       0.3649
     52  OE1      102.0850    8.5300 -102.0900 O.co2  43  GLU43      -0.2457
     53  OE2      103.3930   10.1020 -101.3970 O.co2  43  GLU43      -0.2457
     54  N        104.2270    3.9740  -99.3290 N.am   44  LEU44      -0.1980
     55  CA       104.0530    2.5490  -99.5480 C.3    44  LEU44       0.1596
     56  C        103.6060    1.8200  -98.2860 C.2    44  LEU44       0.2287
     57  O        102.9810    0.7590  -98.3600 O.2    44  LEU44      -0.2864
     58  CB       105.3310    1.9310 -100.0980 C.3    44  LEU44       0.0297
     59  CG       105.2480    1.6730 -101.5990 C.3    44  LEU44       0.0022
     60  CD1      106.6100    1.2830 -102.1240 C.3    44  LEU44       0.0001
     61  CD2      104.2280    0.5750 -101.8740 C.3    44  LEU44       0.0001
     62  N        101.7930   -0.6780 -106.8490 N.3    73  TRP73      -0.1227
     63  CA       102.2660    0.4470 -106.0620 C.3    73  TRP73       0.1737
     64  C        102.6530    1.6670 -106.8770 C.2    73  TRP73       0.2595
     65  O        102.2720    2.7900 -106.5430 O.2    73  TRP73      -0.2718
     66  CB       103.4070    0.0380 -105.1190 C.3    73  TRP73       0.0564
     67  CG       104.7180   -0.3610 -105.7400 C.ar   73  TRP73       0.0003
     68  CD1      105.1410   -1.6290 -106.0160 C.ar   73  TRP73       0.0946
     69  CD2      105.8140    0.5030 -106.0660 C.ar   73  TRP73       0.0152
     70  NE1      106.4330   -1.6100 -106.4820 N.ar   73  TRP73      -0.2442
     71  CE2      106.8700   -0.3120 -106.5240 C.ar   73  TRP73       0.0810
     72  CE3      106.0060    1.8890 -106.0140 C.ar   73  TRP73       0.0012
     73  CZ2      108.1010    0.2080 -106.9260 C.ar   73  TRP73       0.0191
     74  CZ3      107.2330    2.4100 -106.4170 C.ar   73  TRP73       0.0001
     75  CH2      108.2640    1.5670 -106.8660 C.ar   73  TRP73       0.0015
     76  N        103.3730    1.4500 -107.9650 N.am   74  MET74      -0.1979
     77  CA       103.8060    2.5530 -108.8110 C.3    74  MET74       0.1605
     78  C        102.6460    3.3460 -109.4230 C.2    74  MET74       0.2287
     79  O        102.6260    4.5800 -109.3380 O.2    74  MET74      -0.2864
     80  CB       104.7160    2.0150 -109.9140 C.3    74  MET74       0.0413
     81  CG       105.4230    3.0690 -110.7420 C.3    74  MET74       0.0598
     82  SD       106.4610    4.1740 -109.7820 S.3    74  MET74      -0.1393
     83  CE       105.9580    5.7190 -110.5070 C.3    74  MET74       0.0692
     84  N        100.4640    4.9330 -106.7530 N.3    77  LEU77      -0.1231
     85  CA       101.1190    6.1400 -106.2610 C.3    77  LEU77       0.1693
     86  C        100.7630    7.2570 -107.2240 C.2    77  LEU77       0.2591
     87  O        100.2270    8.2830 -106.8380 O.2    77  LEU77      -0.2718
     88  CB       102.6480    5.9920 -106.2470 C.3    77  LEU77       0.0284
     89  CG       103.3710    5.2260 -105.1330 C.3    77  LEU77       0.0019
     90  CD1      104.8880    5.4470 -105.2490 C.3    77  LEU77       0.0001
     91  CD2      102.8900    5.6940 -103.7720 C.3    77  LEU77       0.0001
     92  N        101.0680    7.0450 -108.4920 N.am   78  MET78      -0.1979
     93  CA       100.7990    8.0570 -109.4930 C.3    78  MET78       0.1605
     94  C         99.3140    8.3940 -109.6510 C.2    78  MET78       0.2287
     95  O         98.9780    9.4750 -110.1370 O.2    78  MET78      -0.2864
     96  CB       101.4010    7.6210 -110.8290 C.3    78  MET78       0.0413
     97  CG       102.8790    7.2950 -110.7460 C.3    78  MET78       0.0598
     98  SD       103.5470    6.7990 -112.3270 S.3    78  MET78      -0.1393
     99  CE       104.8090    8.0120 -112.5660 C.3    78  MET78       0.0692
    100  N         97.2350    8.7150 -107.1650 N.3    80  GLY80      -0.1210
    101  CA        96.9930    9.6700 -106.1000 C.3    80  GLY80       0.1956
    102  C         97.7000   10.9770 -106.3820 C.2    80  GLY80       0.2611
    103  O         97.2280   12.0340 -105.9770 O.2    80  GLY80      -0.2717
    104  N         98.8350   10.9100 -107.0730 N.am   81  LEU81      -0.1979
    105  CA        99.5790   12.1140 -107.4140 C.3    81  LEU81       0.1596
    106  C         98.7300   12.9350 -108.3700 C.2    81  LEU81       0.2287
    107  O         98.5180   14.1250 -108.1540 O.2    81  LEU81      -0.2864
    108  CB       100.9090   11.7650 -108.0970 C.3    81  LEU81       0.0297
    109  CG       101.6870   12.9560 -108.6880 C.3    81  LEU81       0.0022
    110  CD1      102.0630   13.9220 -107.5780 C.3    81  LEU81       0.0001
    111  CD2      102.9220   12.4660 -109.4080 C.3    81  LEU81       0.0001
    112  N         95.8330   14.5930 -106.8400 N.3    84  ARG84      -0.1245
    113  CA        96.1970   15.7200 -106.0070 C.3    84  ARG84       0.1563
    114  C         96.5730   16.9090 -106.8760 C.2    84  ARG84       0.2260
    115  O         96.4920   18.0480 -106.4340 O.2    84  ARG84      -0.2867
    116  CB        97.3780   15.3550 -105.1150 C.3    84  ARG84       0.0307
    117  CG        97.0030   15.0170 -103.6830 C.3    84  ARG84       0.0489
    118  CD        98.1640   14.3500 -102.9830 C.3    84  ARG84       0.2205
    119  NE        98.5270   13.1590 -103.7230 N.pl3  84  ARG84      -0.0865
    120  CZ        99.7610   12.7070 -103.8700 C.cat  84  ARG84       0.5346
    121  NH1      100.7870   13.3390 -103.3190 N.pl3  84  ARG84       0.1354
    122  NH2       99.9620   11.6360 -104.6110 N.pl3  84  ARG84       0.1354
    123  N        103.2400   16.5220 -105.4450 N.3    94  PHE94      -0.1241
    124  CA       103.7280   15.2690 -104.8620 C.3    94  PHE94       0.1605
    125  C        103.4290   15.0780 -103.3800 C.2    94  PHE94       0.2264
    126  O        103.4400   13.9460 -102.8830 O.2    94  PHE94      -0.2867
    127  CB       105.2330   15.1350 -105.0450 C.3    94  PHE94       0.0534
    128  CG       105.6420   14.7550 -106.4230 C.ar   94  PHE94      -0.0203
    129  CD1      105.6120   15.6910 -107.4530 C.ar   94  PHE94      -0.0042
    130  CD2      106.0600   13.4570 -106.6990 C.ar   94  PHE94      -0.0042
    131  CE1      105.9950   15.3480 -108.7540 C.ar   94  PHE94      -0.0003
    132  CE2      106.4490   13.0920 -107.9950 C.ar   94  PHE94      -0.0003
    133  CZ       106.4160   14.0440 -109.0290 C.ar   94  PHE94      -0.0000
    134  N        113.4550   12.5280 -116.2380 N.3   111  ILE111     -0.1245
    135  CA       112.2830   12.8920 -115.4580 C.3   111  ILE111      0.1561
    136  C        111.2560   13.7370 -116.1950 C.2   111  ILE111      0.2260
    137  O        110.0540   13.5120 -116.0580 O.2   111  ILE111     -0.2867
    138  CB       112.7110   13.6150 -114.1780 C.3   111  ILE111      0.0252
    139  CG1      113.2800   12.5840 -113.2090 C.3   111  ILE111      0.0019
    140  CG2      111.5520   14.3910 -113.5820 C.3   111  ILE111      0.0019
    141  CD1      113.3780   13.0600 -111.7800 C.3   111  ILE111      0.0001
    142  N        108.2630   12.0120 -118.0300 N.3   114  ILE114     -0.1231
    143  CA       107.1990   11.5930 -117.1280 C.3   114  ILE114      0.1692
    144  C        106.2360   12.7220 -116.7560 C.2   114  ILE114      0.2592
    145  O        105.0200   12.5390 -116.8290 O.2   114  ILE114     -0.2718
    146  CB       107.7790   10.9900 -115.8390 C.3   114  ILE114      0.0266
    147  CG1      108.5610    9.7200 -116.1690 C.3   114  ILE114      0.0019
    148  CG2      106.6640   10.6720 -114.8670 C.3   114  ILE114      0.0020
    149  CD1      109.0960    8.9860 -114.9550 C.3   114  ILE114      0.0001
    150  N        106.7640   13.8800 -116.3560 N.am  115  PHE115     -0.1976
    151  CA       105.9000   15.0050 -115.9900 C.3   115  PHE115      0.1639
    152  C        104.9140   15.2970 -117.1030 C.2   115  PHE115      0.2290
    153  O        103.7420   15.5660 -116.8430 O.2   115  PHE115     -0.2864
    154  CB       106.7210   16.2710 -115.6840 C.3   115  PHE115      0.0560
    155  CG       107.4260   16.2310 -114.3560 C.ar  115  PHE115     -0.0200
    156  CD1      107.5960   17.3890 -113.6170 C.ar  115  PHE115     -0.0042
    157  CD2      107.9200   15.0300 -113.8410 C.ar  115  PHE115     -0.0042
    158  CE1      108.2480   17.3540 -112.3810 C.ar  115  PHE115     -0.0003
    159  CE2      108.5730   14.9850 -112.6070 C.ar  115  PHE115     -0.0003
    160  CZ       108.7380   16.1460 -111.8770 C.ar  115  PHE115     -0.0000
    161  N        102.3520   12.5050 -116.8420 N.3   118  LEU118     -0.1245
    162  CA       101.4730   12.6940 -115.7000 C.3   118  LEU118      0.1561
    163  C        100.5480   13.8670 -115.9940 C.2   118  LEU118      0.2260
    164  O         99.3260   13.7180 -116.0150 O.2   118  LEU118     -0.2867
    165  CB       102.2890   12.9800 -114.4450 C.3   118  LEU118      0.0270
    166  CG       103.2660   11.8710 -114.0460 C.3   118  LEU118      0.0019
    167  CD1      104.0150   12.2870 -112.8040 C.3   118  LEU118      0.0001
    168  CD2      102.5150   10.5730 -113.7920 C.3   118  LEU118      0.0001
    169  N        108.1710    5.2450 -115.3900 N.3   206  GLY206     -0.1225
    170  CA       108.6960    5.6190 -114.0950 C.3   206  GLY206      0.1811
    171  C        109.5370    4.5250 -113.4950 C.2   206  GLY206      0.2280
    172  O        110.6840    4.7610 -113.1600 O.2   206  GLY206     -0.2866
    173  N        112.9270    4.3020 -114.7830 N.3   209  HIS209     -0.1226
    174  CA       113.8440    5.3720 -114.4040 C.3   209  HIS209      0.1752
    175  C        114.3330    5.0490 -113.0060 C.2   209  HIS209      0.2595
    176  O        115.4770    5.3110 -112.6470 O.2   209  HIS209     -0.2718
    177  CB       113.1000    6.7010 -114.3920 C.3   209  HIS209      0.0759
    178  CG       113.9400    7.8690 -114.7970 C.ar  209  HIS209      0.0818
    179  ND1      115.0000    8.3230 -114.0440 N.ar  209  HIS209     -0.2268
    180  CD2      113.8670    8.6830 -115.8780 C.ar  209  HIS209      0.1154
    181  CE1      115.5450    9.3690 -114.6410 C.ar  209  HIS209      0.1986
    182  NE2      114.8740    9.6070 -115.7570 N.ar  209  HIS209     -0.2212
    183  N        113.4400    4.4630 -112.2250 N.am  210  LEU210     -0.1980
    184  CA       113.7460    4.0740 -110.8630 C.3   210  LEU210      0.1596
    185  C        114.8760    3.0570 -110.8830 C.2   210  LEU210      0.2287
    186  O        115.9540    3.3110 -110.3520 O.2   210  LEU210     -0.2864
    187  CB       112.5100    3.4620 -110.2060 C.3   210  LEU210      0.0297
    188  CG       112.7640    2.9150 -108.8140 C.3   210  LEU210      0.0022
    189  CD1      113.2780    4.0390 -107.9610 C.3   210  LEU210      0.0001
    190  CD2      111.5070    2.3010 -108.2350 C.3   210  LEU210      0.0001
    191  N        119.1550    3.1080 -111.6230 N.3   213  MET213     -0.1245
    192  CA       119.9740    3.7020 -110.5660 C.3   213  MET213      0.1570
    193  C        121.0120    2.6460 -110.1830 C.2   213  MET213      0.2261
    194  O        122.1770    2.7390 -110.5840 O.2   213  MET213     -0.2867
    195  CB       119.1150    4.0690 -109.3520 C.3   213  MET213      0.0387
    196  CG       118.0250    5.0880 -109.6480 C.3   213  MET213      0.0595
    197  SD       116.9520    5.4260 -108.2200 S.3   213  MET213     -0.1393
    198  CE       117.1360    7.2250 -108.0370 C.3   213  MET213      0.0692
    199  N        112.2690   -1.5630 -105.5850 N.3   217  PRO217     -0.2102
    200  CA       111.3750   -2.7260 -105.6610 C.3   217  PRO217      0.1504
    201  C        111.1200   -3.3700 -104.2930 C.2   217  PRO217      0.2575
    202  O        111.9590   -4.0960 -103.7560 O.2   217  PRO217     -0.2718
    203  CB       112.1010   -3.6390 -106.6400 C.3   217  PRO217      0.0282
    204  CG       112.6690   -2.6370 -107.6160 C.3   217  PRO217      0.0208
    205  CD       113.2400   -1.5760 -106.6940 C.3   217  PRO217      0.0893
    206  N        109.9310   -3.1020 -103.7600 N.am  218  VAL218     -0.1980
    207  CA       109.5110   -3.5670 -102.4480 C.3   218  VAL218      0.1595
    208  C        108.7810   -4.9100 -102.3560 C.2   218  VAL218      0.2287
    209  O        107.5530   -4.9550 -102.4470 O.2   218  VAL218     -0.2864
    210  CB       108.6190   -2.5150 -101.8160 C.3   218  VAL218      0.0276
    211  CG1      108.7030   -2.6010 -100.3070 C.3   218  VAL218      0.0022
    212  CG2      109.0270   -1.1440 -102.3130 C.3   218  VAL218      0.0022
@<TRIPOS>BOND
     1   142   143    1
     2   143   144    1
     3   143   146    1
     4   152   153    2
     5   152   151    1
     6   161   162    1
     7   145   144    2
     8   144   150   am
     9   150   151    1
    10   134   135    1
    11   136   137    2
    12   136   135    1
    13   147   146    1
    14   147   149    1
    15   164   163    2
    16   163   162    1
    17   151   154    1
    18   180   182   ar
    19   180   178   ar
    20   146   148    1
    21   182   181   ar
    22   162   165    1
    23   154   155    1
    24   135   138    1
    25   169   170    1
    26   178   177    1
    27   178   179   ar
    28   173   174    1
    29   181   179   ar
    30   165   166    1
    31   174   177    1
    32   174   175    1
    33   155   157   ar
    34   155   156   ar
    35   138   140    1
    36   138   139    1
    37   170   171    1
    38   166   168    1
    39   166   167    1
    40   157   159   ar
    41   156   158   ar
    42   171   172    2
    43   139   141    1
    44   175   176    2
    45   175   183   am
    46   159   160   ar
    47    99    98    1
    48   158   160   ar
    49    98    97    1
    50   183   184    1
    51   191   192    1
    52   185   184    1
    53   185   186    2
    54   184   187    1
    55    96    97    1
    56    96    93    1
    57    81    80    1
    58    81    82    1
    59   194   193    2
    60   192   193    1
    61   192   195    1
    62     8     7    1
    63    83    82    1
    64   187   188    1
    65    95    94    2
    66    80    77    1
    67    94    93    1
    68   196   195    1
    69   196   197    1
    70     7     6    1
    71    93    92    1
    72    78    79    2
    73    78    77    1
    74   111   109    1
    75   133   131   ar
    76   133   132   ar
    77   188   190    1
    78   188   189    1
    79    77    76    1
    80   131   129   ar
    81   109   108    1
    82   109   110    1
    83    92    86   am
    84   106   107    2
    85   106   105    1
    86   197   198    1
    87     6     5    1
    88   108   105    1
    89   132   130   ar
    90    76    64   am
    91    15    14    1
    92   204   205    1
    93   204   203    1
    94   129   128   ar
    95   105   104    1
    96    86    87    2
    97    86    85    1
    98   100   101    1
    99   104   102   am
   100    73    75   ar
   101    73    71   ar
   102    64    65    2
   103    64    63    1
   104   114   115    2
   105   114   113    1
   106    75    74   ar
   107     5     2    1
   108    62    63    1
   109   112   113    1
   110    84    85    1
   111   130   128   ar
   112   205   199    1
   113   203   200    1
   114    71    70   ar
   115    71    69   ar
   116    70    68   ar
   117   128   127    1
   118    74    72   ar
   119   102   101    1
   120   102   103    2
   121    85    88    1
   122    88    89    1
   123    14    16    1
   124    14    13    1
   125    69    72   ar
   126    69    67   ar
   127    63    66    1
   128    68    67   ar
   129   113   116    1
   130     1     2    1
   131     2     3    1
   132    67    66    1
   133   200   199    1
   134   200   201    1
   135   123   124    1
   136    13    10    1
   137    90    89    1
   138    89    91    1
   139   116   117    1
   140   127   124    1
   141   124   125    1
   142   122   120    1
   143     3     4    2
   144   201   206   am
   145   201   202    2
   146   120   119    2
   147   120   121    1
   148    10    11    1
   149    10     9    1
   150   206   207    1
   151   119   118    1
   152   117   118    1
   153    23    21    1
   154    12    11    2
   155   125   126    2
   156    11    17   am
   157    36    33    1
   158    17    18    1
   159   207   208    1
   160   207   210    1
   161   209   208    2
   162    18    21    1
   163    18    19    1
   164   212   210    1
   165    30    29    1
   166    21    22    1
   167    60    59    1
   168    52    51   ar
   169    33    32    1
   170    33    34    1
   171    61    59    1
   172   210   211    1
   173    59    58    1
   174    32    26   am
   175    53    51   ar
   176    51    50    1
   177    28    29    1
   178    28    25    1
   179    29    31    1
   180    35    34    2
   181    19    20    2
   182    34    37   am
   183    43    42   ar
   184    26    25    1
   185    26    27    2
   186    58    55    1
   187    25    24    1
   188    37    38    1
   189    49    50    1
   190    49    46    1
   191    42    44   ar
   192    42    41    1
   193    55    54    1
   194    55    56    1
   195    54    47   am
   196    38    41    1
   197    38    39    1
   198    47    46    1
   199    47    48    2
   200    46    45    1
   201    57    56    2
   202    39    40    2
