@<TRIPOS>MOLECULE
tmp/1ndvA00.pdb
 188 179 0 0 0
SMALL
GASTEIGER

@<TRIPOS>ATOM
      1  N         56.0920   52.9990   26.2950 N.3    14  HIS14      -0.1241
      2  CA        55.6330   54.3790   26.0340 C.3    14  HIS14       0.1621
      3  C         55.2340   55.1740   27.3610 C.2    14  HIS14       0.2264
      4  O         54.2440   54.7610   27.9940 O.2    14  HIS14      -0.2867
      5  CB        54.3320   54.4000   25.0430 C.3    14  HIS14       0.0745
      6  CG        54.4810   53.7490   23.6250 C.ar   14  HIS14       0.0817
      7  ND1       54.5580   54.5360   22.5420 N.ar   14  HIS14      -0.2268
      8  CD2       54.5270   52.4340   23.1540 C.ar   14  HIS14       0.1154
      9  CE1       54.6270   53.7910   21.3890 C.ar   14  HIS14       0.1986
     10  NE2       54.6060   52.4480   21.7270 N.ar   14  HIS14      -0.2212
     11  N         53.1140   57.3530   27.8220 N.3    16  ASP16      -0.1239
     12  CA        51.6940   57.7170   27.8940 C.3    16  ASP16       0.1674
     13  C         50.8480   56.5890   27.8190 C.2    16  ASP16       0.2266
     14  O         49.7060   56.7520   27.6840 O.2    16  ASP16      -0.2867
     15  CB        51.0890   58.6870   26.8000 C.3    16  ASP16       0.1410
     16  CG        51.5980   58.3510   25.3190 C.2    16  ASP16       0.3668
     17  OD1       51.8350   59.2520   24.5510 O.co2  16  ASP16      -0.2456
     18  OD2       51.7380   57.1930   24.9070 O.co2  16  ASP16      -0.2456
     19  N         42.5170   46.7550   29.4780 N.3    49  MET49      -0.1196
     20  CA        41.7730   45.7100   28.8790 C.3    49  MET49       0.1786
     21  C         42.2200   44.3950   29.4290 C.2    49  MET49       0.2306
     22  O         43.2810   44.2620   29.9940 O.2    49  MET49      -0.2863
     23  CB        41.9180   45.8170   27.3420 C.2    49  MET49       0.0070
     24  CG        43.0210   46.7690   26.7970 C.2    49  MET49       0.0282
     25  SD        43.3060   46.9940   24.9900 S.3    49  MET49      -0.1125
     26  CE        43.4630   45.3270   24.3150 C.3    49  MET49       0.0742
     27  N         40.2900   43.8340   22.2010 N.3    53  LEU53      -0.1245
     28  CA        39.7530   44.9730   21.4080 C.3    53  LEU53       0.1561
     29  C         40.1930   45.3060   19.9300 C.2    53  LEU53       0.2260
     30  O         41.2080   44.9590   19.3700 O.2    53  LEU53      -0.2867
     31  CB        40.0450   46.2510   22.1800 C.3    53  LEU53       0.0270
     32  CG        39.3550   46.1850   23.5200 C.3    53  LEU53       0.0019
     33  CD1       39.6640   47.4320   24.3760 C.3    53  LEU53       0.0001
     34  CD2       37.8560   45.9290   23.2690 C.3    53  LEU53       0.0001
     35  N         41.2680   48.5220   17.1200 N.3    55  LEU55      -0.1245
     36  CA        41.9310   49.8340   16.9070 C.3    55  LEU55       0.1561
     37  C         41.2860   51.1130   17.3260 C.2    55  LEU55       0.2260
     38  O         41.7180   51.9240   18.1410 O.2    55  LEU55      -0.2867
     39  CB        42.5400   49.9350   15.5190 C.3    55  LEU55       0.0270
     40  CG        43.2410   51.2420   15.2140 C.3    55  LEU55       0.0019
     41  CD1       44.4490   51.1100   14.3310 C.3    55  LEU55       0.0001
     42  CD2       42.3240   52.3020   14.5520 C.3    55  LEU55       0.0001
     43  N         40.7230   50.7190   21.2960 N.3    58  PHE58      -0.1227
     44  CA        42.0800   51.0740   21.7350 C.3    58  PHE58       0.1736
     45  C         42.3860   52.5260   21.6870 C.2    58  PHE58       0.2595
     46  O         42.7340   52.9820   22.7350 O.2    58  PHE58      -0.2718
     47  CB        43.0920   50.2540   20.9180 C.3    58  PHE58       0.0547
     48  CG        44.4910   50.3800   21.4030 C.ar   58  PHE58      -0.0202
     49  CD1       44.9000   49.8090   22.6340 C.ar   58  PHE58      -0.0042
     50  CD2       45.3790   51.0660   20.5840 C.ar   58  PHE58      -0.0042
     51  CE1       46.2670   49.8530   23.0220 C.ar   58  PHE58      -0.0003
     52  CE2       46.7300   51.1440   20.9500 C.ar   58  PHE58      -0.0003
     53  CZ        47.1750   50.5220   22.1480 C.ar   58  PHE58      -0.0000
     54  N         42.2550   53.2850   20.5630 N.am   59  LEU59      -0.1980
     55  CA        42.6340   54.7440   20.6350 C.3    59  LEU59       0.1596
     56  C         41.7950   55.6650   21.4700 C.2    59  LEU59       0.2287
     57  O         42.1240   56.7460   21.9350 O.2    59  LEU59      -0.2864
     58  CB        42.6320   55.4270   19.2260 C.3    59  LEU59       0.0297
     59  CG        43.6010   54.7190   18.2190 C.3    59  LEU59       0.0022
     60  CD1       43.1010   54.7300   16.7900 C.3    59  LEU59       0.0001
     61  CD2       45.0720   54.9780   18.5270 C.3    59  LEU59       0.0001
     62  N         42.8350   56.2880   24.8980 N.3    62  PHE62      -0.1241
     63  CA        43.6820   57.4640   25.1690 C.3    62  PHE62       0.1605
     64  C         42.8820   58.7150   25.5530 C.2    62  PHE62       0.2264
     65  O         43.2890   59.5580   26.3710 O.2    62  PHE62      -0.2867
     66  CB        44.6340   57.6920   23.9740 C.3    62  PHE62       0.0534
     67  CG        45.9340   56.9430   24.2120 C.ar   62  PHE62      -0.0203
     68  CD1       46.0950   55.5470   23.9900 C.ar   62  PHE62      -0.0042
     69  CD2       47.0190   57.6660   24.7180 C.ar   62  PHE62      -0.0042
     70  CE1       47.2810   54.8870   24.4170 C.ar   62  PHE62      -0.0003
     71  CE2       48.1810   56.9950   25.1370 C.ar   62  PHE62      -0.0003
     72  CZ        48.2860   55.6000   25.0400 C.ar   62  PHE62      -0.0000
     73  N         52.0800   64.9380   21.4840 N.3   103  LEU103     -0.1245
     74  CA        50.8720   64.5280   22.1470 C.3   103  LEU103      0.1561
     75  C         50.7390   65.0440   23.6100 C.2   103  LEU103      0.2260
     76  O         49.6540   64.9590   24.1870 O.2   103  LEU103     -0.2867
     77  CB        50.6390   62.9810   22.0220 C.3   103  LEU103      0.0270
     78  CG        50.5640   62.8340   20.4450 C.3   103  LEU103      0.0019
     79  CD1       50.5080   61.3800   19.9330 C.3   103  LEU103      0.0001
     80  CD2       49.3150   63.5910   19.9080 C.3   103  LEU103      0.0001
     81  N         43.2530   65.3380   21.6140 N.3   114  TRP114     -0.1241
     82  CA        42.4380   65.0560   22.8410 C.3   114  TRP114      0.1605
     83  C         41.3260   66.0010   23.1400 C.2   114  TRP114      0.2264
     84  O         40.8750   66.2240   24.2590 O.2   114  TRP114     -0.2867
     85  CB        43.2720   65.0040   24.1220 C.3   114  TRP114      0.0550
     86  CG        44.7440   64.7500   23.8860 C.ar  114  TRP114      0.0003
     87  CD1       45.7940   65.6050   24.1600 C.ar  114  TRP114      0.0946
     88  CD2       45.3180   63.5380   23.3520 C.ar  114  TRP114      0.0152
     89  NE1       46.9850   64.9340   23.9050 N.ar  114  TRP114     -0.2442
     90  CE2       46.7180   63.6740   23.4500 C.ar  114  TRP114      0.0810
     91  CE3       44.7980   62.3770   22.8900 C.ar  114  TRP114      0.0012
     92  CZ2       47.5410   62.5890   23.0950 C.ar  114  TRP114      0.0191
     93  CZ3       45.6090   61.3080   22.5290 C.ar  114  TRP114      0.0001
     94  CH2       46.9690   61.4290   22.6810 C.ar  114  TRP114      0.0015
     95  N         54.7130   60.5850   14.8550 N.3   152  MET152     -0.1245
     96  CA        53.3930   59.9320   14.5390 C.3   152  MET152      0.1570
     97  C         53.1530   59.6490   12.9740 C.2   152  MET152      0.2261
     98  O         53.2760   60.4680   12.0740 O.2   152  MET152     -0.2867
     99  CB        52.3210   60.8030   15.2250 C.3   152  MET152      0.0387
    100  CG        52.5400   61.0310   16.7530 C.3   152  MET152      0.0595
    101  SD        52.7620   59.3800   17.5280 S.3   152  MET152     -0.1393
    102  CE        51.3760   58.4710   16.9250 C.3   152  MET152      0.0692
    103  N         56.0000   56.1010   15.2860 N.3   180  ALA180     -0.1231
    104  CA        54.8370   55.2870   15.6280 C.3   180  ALA180      0.1694
    105  C         53.4440   55.6960   15.3030 C.2   180  ALA180      0.2593
    106  O         53.1350   56.7080   14.7520 O.2   180  ALA180     -0.2718
    107  CB        54.6950   55.1360   17.1450 C.3   180  ALA180      0.0304
    108  N         52.5740   54.8020   15.6300 N.am  181  GLY181     -0.1942
    109  CA        51.2030   55.1820   15.4810 C.3   181  GLY181      0.2014
    110  C         50.6860   54.1120   14.6500 C.2   181  GLY181      0.2639
    111  O         50.9790   52.9840   14.7960 O.2   181  GLY181     -0.2714
    112  N         49.9010   54.4070   13.7000 N.am  182  ASP182     -0.1957
    113  CA        49.2240   53.2850   13.0480 C.3   182  ASP182      0.1840
    114  C         49.8580   52.9120   11.7170 C.2   182  ASP182      0.2621
    115  O         49.6290   53.5330   10.6750 O.2   182  ASP182     -0.2715
    116  CB        47.8420   53.8680   12.9150 C.3   182  ASP182      0.1450
    117  CG        46.8950   53.0890   12.0590 C.2   182  ASP182      0.3671
    118  OD1       45.8110   53.5600   11.6120 O.co2 182  ASP182     -0.2456
    119  OD2       47.2760   51.9540   11.8310 O.co2 182  ASP182     -0.2456
    120  N         50.5770   51.8290   11.7220 N.am  183  GLU183     -0.1977
    121  CA        51.1960   51.2200   10.5460 C.3   183  GLU183      0.1602
    122  C         50.2340   50.7560    9.4590 C.2   183  GLU183      0.2287
    123  O         50.6440   50.2130    8.4630 O.2   183  GLU183     -0.2864
    124  CB        51.8030   49.8480   10.7850 C.3   183  GLU183      0.0415
    125  CG        53.2400   49.5800   11.0960 C.3   183  GLU183      0.1163
    126  CD        53.2290   48.0950   11.5210 C.2   183  GLU183      0.3649
    127  OE1       54.0580   47.3360   11.0170 O.co2 183  GLU183     -0.2457
    128  OE2       52.3710   47.7060   12.3320 O.co2 183  GLU183     -0.2457
    129  N         58.4870   51.4980   14.6110 N.3   211  HIS211     -0.1241
    130  CA        57.5520   50.4810   14.8910 C.3   211  HIS211      0.1621
    131  C         57.0800   49.8670   13.5330 C.2   211  HIS211      0.2264
    132  O         56.7080   50.6070   12.6670 O.2   211  HIS211     -0.2867
    133  CB        56.4030   51.0790   15.4940 C.3   211  HIS211      0.0745
    134  CG        56.4040   51.3220   16.9640 C.ar  211  HIS211      0.0817
    135  ND1       56.9310   52.4890   17.4680 N.ar  211  HIS211     -0.2268
    136  CD2       55.5430   50.7000   17.9150 C.ar  211  HIS211      0.1154
    137  CE1       56.3660   52.6250   18.6250 C.ar  211  HIS211      0.1986
    138  NE2       55.5250   51.6030   18.9540 N.ar  211  HIS211     -0.2212
    139  N         54.0860   44.7750   13.3090 N.3   214  GLU214     -0.1231
    140  CA        53.2520   44.4110   14.4890 C.3   214  GLU214      0.1699
    141  C         51.8090   44.0140   14.0310 C.2   214  GLU214      0.2592
    142  O         51.4500   42.8580   14.1140 O.2   214  GLU214     -0.2718
    143  CB        53.2380   45.6100   15.5020 C.3   214  GLU214      0.0402
    144  CG        52.0740   45.5620   16.5190 C.3   214  GLU214      0.1161
    145  CD        51.7880   46.8670   17.2300 C.2   214  GLU214      0.3649
    146  OE1       52.1020   47.9570   16.7230 O.co2 214  GLU214     -0.2457
    147  OE2       51.2080   46.7300   18.3160 O.co2 214  GLU214     -0.2457
    148  N         51.1140   45.0550   13.4430 N.am  215  VAL215     -0.1980
    149  CA        49.8020   44.9560   12.7300 C.3   215  VAL215      0.1595
    150  C         49.8060   45.1320   11.1180 C.2   215  VAL215      0.2287
    151  O         48.8650   45.4550   10.3810 O.2   215  VAL215     -0.2864
    152  CB        48.8730   45.9300   13.4770 C.3   215  VAL215      0.0276
    153  CG1       49.2040   47.3270   13.1110 C.3   215  VAL215      0.0022
    154  CG2       47.3820   45.7090   13.4660 C.3   215  VAL215      0.0022
    155  N         47.1120   41.4380   23.0900 N.3   265  LEU265     -0.1231
    156  CA        45.9020   42.1480   23.3090 C.3   265  LEU265      0.1693
    157  C         45.5870   42.9870   22.1370 C.2   265  LEU265      0.2592
    158  O         44.5000   43.4700   21.9180 O.2   265  LEU265     -0.2718
    159  CB        45.9200   42.9570   24.6830 C.3   265  LEU265      0.0284
    160  CG        45.8010   42.2530   26.1500 C.3   265  LEU265      0.0019
    161  CD1       45.9070   43.2950   27.2660 C.3   265  LEU265      0.0001
    162  CD2       44.4510   41.6700   26.5710 C.3   265  LEU265      0.0001
    163  N         46.6450   43.1730   21.3670 N.am  266  THR266     -0.1953
    164  CA        46.4700   44.0400   20.1710 C.3   266  THR266      0.1897
    165  C         45.8740   43.4180   18.8650 C.2   266  THR266      0.2313
    166  O         45.5810   44.1280   17.8980 O.2   266  THR266     -0.2863
    167  CB        47.7820   44.7360   19.7100 C.3   266  THR266      0.1794
    168  OG1       48.7130   43.6700   19.3610 O.3   266  THR266     -0.2208
    169  CG2       48.2910   45.8100   20.7310 C.3   266  THR266      0.0378
    170  N         52.6060   49.2340   26.6330 N.3   293  ASP293     -0.1239
    171  CA        51.6230   50.2070   27.1920 C.3   293  ASP293      0.1674
    172  C         50.9990   49.6940   28.5080 C.2   293  ASP293      0.2266
    173  O         49.8570   49.2140   28.5840 O.2   293  ASP293     -0.2867
    174  CB        50.4170   50.5120   26.3400 C.3   293  ASP293      0.1410
    175  CG        50.7820   51.5420   25.3040 C.2   293  ASP293      0.3668
    176  OD1       50.8770   52.7590   25.5560 O.co2 293  ASP293     -0.2456
    177  OD2       50.9580   51.0650   24.2030 O.co2 293  ASP293     -0.2456
    178  N         47.5440   47.7310   29.3050 N.3   297  PHE297     -0.1241
    179  CA        47.5550   46.2420   29.2780 C.3   297  PHE297      0.1605
    180  C         47.4390   45.4170   30.5780 C.2   297  PHE297      0.2264
    181  O         47.6330   44.1970   30.5880 O.2   297  PHE297     -0.2867
    182  CB        48.7360   45.7310   28.4420 C.3   297  PHE297      0.0534
    183  CG        48.7530   46.4490   27.1320 C.ar  297  PHE297     -0.0203
    184  CD1       47.5540   46.9200   26.4820 C.ar  297  PHE297     -0.0042
    185  CD2       50.0290   46.6560   26.5370 C.ar  297  PHE297     -0.0042
    186  CE1       47.6450   47.5470   25.2200 C.ar  297  PHE297     -0.0003
    187  CE2       50.1250   47.2550   25.2410 C.ar  297  PHE297     -0.0003
    188  CZ        48.9180   47.6250   24.5830 C.ar  297  PHE297     -0.0000
@<TRIPOS>BOND
     1   123   122    2
     2   122   121    1
     3   151   150    2
     4   121   124    1
     5   121   120    1
     6   115   114    2
     7   124   125    1
     8   127   126   ar
     9   125   126    1
    10   150   149    1
    11   126   128   ar
    12   118   117   ar
    13   114   120   am
    14   114   113    1
    15   119   117   ar
    16   117   116    1
    17    98    97    2
    18   132   131    2
    19   149   148    1
    20   149   152    1
    21   116   113    1
    22    97    96    1
    23   113   112    1
    24   153   152    1
    25   139   140    1
    26   148   141   am
    27   154   152    1
    28   131   130    1
    29   112   110   am
    30   141   142    2
    31   141   140    1
    32    41    40    1
    33   140   143    1
    34    96    95    1
    35    96    99    1
    36    42    40    1
    37   129   130    1
    38   110   111    2
    39   110   109    1
    40   106   105    2
    41   130   133    1
    42    40    39    1
    43    99   100    1
    44   103   104    1
    45   105   104    1
    46   105   108   am
    47   109   108    1
    48   133   134    1
    49   143   144    1
    50    39    36    1
    51   104   107    1
    52   144   145    1
    53   146   145   ar
    54   100   101    1
    55    60    59    1
    56    36    35    1
    57    36    37    1
    58   102   101    1
    59   134   135   ar
    60   134   136   ar
    61   145   147   ar
    62    37    38    2
    63   135   137   ar
    64   166   165    2
    65   136   138   ar
    66    59    61    1
    67    59    58    1
    68   137   138   ar
    69   165   164    1
    70    58    55    1
    71   168   167    1
    72    30    29    2
    73   167   164    1
    74   167   169    1
    75    80    78    1
    76    29    28    1
    77    79    78    1
    78   164   163    1
    79    78    77    1
    80    54    55    1
    81    54    45   am
    82    50    52   ar
    83    50    48   ar
    84    55    56    1
    85    47    48    1
    86    47    44    1
    87    52    53   ar
    88    43    44    1
    89   163   157   am
    90     9    10   ar
    91     9     7   ar
    92    48    49   ar
    93    28    31    1
    94    28    27    1
    95    56    57    2
    96    73    74    1
    97    81    82    1
    98    45    44    1
    99    45    46    2
   100    10     8   ar
   101   158   157    2
   102    77    74    1
   103   157   156    1
   104    74    75    1
   105    53    51   ar
   106    31    32    1
   107    93    94   ar
   108    93    91   ar
   109     7     6   ar
   110    49    51   ar
   111    94    92   ar
   112    82    83    1
   113    82    85    1
   114    91    88   ar
   115   155   156    1
   116    92    90   ar
   117    83    84    2
   118     8     6   ar
   119    34    32    1
   120   156   159    1
   121    88    90   ar
   122    88    86   ar
   123    90    89   ar
   124    32    33    1
   125    75    76    2
   126     6     5    1
   127    86    85    1
   128    86    87   ar
   129    89    87   ar
   130    66    67    1
   131    66    63    1
   132    68    67   ar
   133    68    70   ar
   134   177   175   ar
   135    67    69   ar
   136    26    25    1
   137    70    72   ar
   138    17    16   ar
   139   188   186   ar
   140   188   187   ar
   141   159   160    1
   142    69    71   ar
   143    62    63    1
   144    18    16   ar
   145    25    24    1
   146    72    71   ar
   147     5     2    1
   148    63    64    1
   149   186   184   ar
   150   187   185   ar
   151   175   176   ar
   152   175   174    1
   153    16    15    1
   154    64    65    2
   155     2     1    1
   156     2     3    1
   157   160   162    1
   158   160   161    1
   159   174   171    1
   160   184   183   ar
   161   185   183   ar
   162   170   171    1
   163    24    23    2
   164    15    12    1
   165   183   182    1
   166   171   172    1
   167    23    20    1
   168     3     4    2
   169    14    13    2
   170    13    12    1
   171    11    12    1
   172   182   179    1
   173   172   173    2
   174    20    21    1
   175    20    19    1
   176   179   178    1
   177   179   180    1
   178    21    22    2
   179   180   181    2
