@<TRIPOS>MOLECULE
tmp/1ndwA00.pdb
 167 161 0 0 0
SMALL
GASTEIGER

@<TRIPOS>ATOM
      1  N         55.1810   52.5680   26.4290 N.3    14  HIS14      -0.1241
      2  CA        54.7960   53.9250   26.0790 C.3    14  HIS14       0.1621
      3  C         54.4030   54.6660   27.3560 C.2    14  HIS14       0.2264
      4  O         53.4970   54.2080   28.0510 O.2    14  HIS14      -0.2867
      5  CB        53.4250   53.9140   25.1540 C.3    14  HIS14       0.0745
      6  CG        53.5850   53.1500   23.8220 C.ar   14  HIS14       0.0817
      7  ND1       53.6100   53.8660   22.6910 N.ar   14  HIS14      -0.2268
      8  CD2       53.8430   51.8480   23.4620 C.ar   14  HIS14       0.1154
      9  CE1       53.8740   53.0230   21.6410 C.ar   14  HIS14       0.1986
     10  NE2       54.0450   51.7570   22.0350 N.ar   14  HIS14      -0.2212
     11  N         52.4820   57.1650   27.8140 N.3    16  ASP16      -0.1239
     12  CA        51.0080   57.4190   27.7840 C.3    16  ASP16       0.1674
     13  C         50.1320   56.2650   27.9440 C.2    16  ASP16       0.2266
     14  O         48.9320   56.4160   28.1310 O.2    16  ASP16      -0.2867
     15  CB        50.4900   58.2740   26.5810 C.3    16  ASP16       0.1410
     16  CG        51.1160   57.8320   25.2610 C.2    16  ASP16       0.3668
     17  OD1       50.8630   58.4640   24.2700 O.co2  16  ASP16      -0.2456
     18  OD2       51.9070   56.8850   25.1680 O.co2  16  ASP16      -0.2456
     19  N         39.8340   50.1590   21.0490 N.3    58  PHE58      -0.1227
     20  CA        41.1710   50.4380   21.7030 C.3    58  PHE58       0.1736
     21  C         41.5970   51.8840   21.7700 C.2    58  PHE58       0.2595
     22  O         41.8880   52.4270   22.8110 O.2    58  PHE58      -0.2718
     23  CB        42.2680   49.6550   20.9340 C.3    58  PHE58       0.0547
     24  CG        43.6230   49.8680   21.5610 C.ar   58  PHE58      -0.0202
     25  CD1       43.8940   49.2990   22.8300 C.ar   58  PHE58      -0.0042
     26  CD2       44.5860   50.6040   20.8510 C.ar   58  PHE58      -0.0042
     27  CE1       45.2130   49.3000   23.2970 C.ar   58  PHE58      -0.0003
     28  CE2       45.9150   50.5690   21.3680 C.ar   58  PHE58      -0.0003
     29  CZ        46.2020   49.8430   22.5130 C.ar   58  PHE58      -0.0000
     30  N         41.5770   52.5670   20.5970 N.am   59  LEU59      -0.1980
     31  CA        41.8820   53.9860   20.6190 C.3    59  LEU59       0.1596
     32  C         41.0310   54.9170   21.5330 C.2    59  LEU59       0.2287
     33  O         41.5040   55.8550   22.2040 O.2    59  LEU59      -0.2864
     34  CB        41.8280   54.4730   19.1440 C.3    59  LEU59       0.0297
     35  CG        42.9260   53.9130   18.1890 C.3    59  LEU59       0.0022
     36  CD1       42.4860   54.3770   16.8620 C.3    59  LEU59       0.0001
     37  CD2       44.3360   54.4940   18.2260 C.3    59  LEU59       0.0001
     38  N         42.1630   56.0990   24.9390 N.3    62  PHE62      -0.1241
     39  CA        43.0070   57.2930   25.2020 C.3    62  PHE62       0.1605
     40  C         42.1320   58.6120   25.3930 C.2    62  PHE62       0.2264
     41  O         42.4560   59.6030   26.0530 O.2    62  PHE62      -0.2867
     42  CB        44.1540   57.4030   24.0400 C.3    62  PHE62       0.0534
     43  CG        45.1300   56.2340   24.0180 C.ar   62  PHE62      -0.0203
     44  CD1       44.8590   55.0430   23.2790 C.ar   62  PHE62      -0.0042
     45  CD2       46.3520   56.3770   24.7630 C.ar   62  PHE62      -0.0042
     46  CE1       45.8890   54.0380   23.1990 C.ar   62  PHE62      -0.0003
     47  CE2       47.3390   55.3300   24.7220 C.ar   62  PHE62      -0.0003
     48  CZ        47.0840   54.2160   23.9270 C.ar   62  PHE62      -0.0000
     49  N         57.0300   58.1240   23.8350 N.3    99  TYR99      -0.1227
     50  CA        55.7670   58.8080   23.7830 C.3    99  TYR99       0.1736
     51  C         55.8390   59.8740   22.6600 C.2    99  TYR99       0.2596
     52  O         56.8900   60.2760   22.1830 O.2    99  TYR99      -0.2718
     53  CB        55.4210   59.6060   25.1270 C.3    99  TYR99       0.0548
     54  CG        56.4740   60.6750   25.3550 C.ar   99  TYR99      -0.0200
     55  CD1       56.1240   62.0450   25.1540 C.ar   99  TYR99      -0.0009
     56  CD2       57.7960   60.3330   25.8570 C.ar   99  TYR99      -0.0009
     57  CE1       57.0200   63.0650   25.3900 C.ar   99  TYR99       0.0417
     58  CE2       58.7290   61.3740   26.0820 C.ar   99  TYR99       0.0417
     59  CZ        58.3250   62.6960   25.8580 C.ar   99  TYR99       0.1957
     60  OH        59.2640   63.7260   26.0130 O.3    99  TYR99      -0.2866
     61  N         54.5880   60.3140   22.2130 N.am  100  SER100     -0.1952
     62  CA        54.5440   61.4200   21.2660 C.3   100  SER100      0.1924
     63  C         54.2670   62.7090   22.1000 C.2   100  SER100      0.2314
     64  O         53.2600   62.9110   22.7690 O.2   100  SER100     -0.2863
     65  CB        53.2660   61.1630   20.2680 C.3   100  SER100      0.2116
     66  OG        52.9710   62.5200   19.7270 O.3   100  SER100     -0.2180
     67  N         51.1530   64.7830   21.3830 N.3   103  LEU103     -0.1245
     68  CA        49.9120   64.2830   21.9220 C.3   103  LEU103      0.1561
     69  C         49.5990   64.6410   23.4340 C.2   103  LEU103      0.2260
     70  O         48.4960   64.4620   23.9290 O.2   103  LEU103     -0.2867
     71  CB        49.8080   62.7570   21.6410 C.3   103  LEU103      0.0270
     72  CG        49.6740   62.2690   20.2310 C.3   103  LEU103      0.0019
     73  CD1       49.5240   60.7440   20.2710 C.3   103  LEU103      0.0001
     74  CD2       48.2780   62.8350   19.6410 C.3   103  LEU103      0.0001
     75  N         42.7710   65.2510   21.1230 N.3   114  TRP114     -0.1241
     76  CA        41.7920   64.8850   22.1480 C.3   114  TRP114      0.1605
     77  C         40.7200   65.9640   22.3160 C.2   114  TRP114      0.2264
     78  O         40.2620   66.2100   23.4210 O.2   114  TRP114     -0.2867
     79  CB        42.4560   64.6260   23.5350 C.3   114  TRP114      0.0550
     80  CG        43.8080   63.9220   23.3600 C.ar  114  TRP114      0.0003
     81  CD1       45.0510   64.4670   23.6660 C.ar  114  TRP114      0.0946
     82  CD2       44.1070   62.5930   22.9420 C.ar  114  TRP114      0.0152
     83  NE1       46.0700   63.5720   23.5320 N.ar  114  TRP114     -0.2442
     84  CE2       45.5330   62.4060   23.0840 C.ar  114  TRP114      0.0810
     85  CE3       43.3420   61.5580   22.3560 C.ar  114  TRP114      0.0012
     86  CZ2       46.1300   61.2050   22.7160 C.ar  114  TRP114      0.0191
     87  CZ3       43.9670   60.3750   21.9130 C.ar  114  TRP114      0.0001
     88  CH2       45.3790   60.1810   22.1330 C.ar  114  TRP114      0.0015
     89  N         58.0530   59.6630   19.4990 N.3   150  CYS150     -0.1235
     90  CA        57.4000   58.9940   18.4000 C.3   150  CYS150      0.1677
     91  C         56.8560   60.0300   17.4200 C.2   150  CYS150      0.2270
     92  O         56.0530   60.8700   17.7690 O.2   150  CYS150     -0.2867
     93  CB        56.1280   58.2600   19.0060 C.3   150  CYS150      0.0956
     94  SG        56.4850   57.0460   20.3850 S.3   150  CYS150     -0.0801
     95  N         53.9450   59.9370   14.5210 N.3   152  MET152     -0.1245
     96  CA        52.6050   59.1980   14.3560 C.3   152  MET152      0.1570
     97  C         52.2610   59.0120   12.8570 C.2   152  MET152      0.2261
     98  O         52.3160   60.0050   12.1060 O.2   152  MET152     -0.2867
     99  CB        51.5450   60.0010   15.0060 C.3   152  MET152      0.0387
    100  CG        51.5990   60.2190   16.6480 C.3   152  MET152      0.0595
    101  SD        51.7100   58.6670   17.5350 S.3   152  MET152     -0.1393
    102  CE        50.2410   57.7980   17.0580 C.3   152  MET152      0.0692
    103  N         49.7170   58.6470   10.9950 N.3   154  HIS154     -0.1241
    104  CA        48.7040   59.4790   10.2990 C.3   154  HIS154      0.1621
    105  C         49.0050   60.9070   10.2180 C.2   154  HIS154      0.2264
    106  O         48.2230   61.7210    9.6940 O.2   154  HIS154     -0.2867
    107  CB        47.2720   59.1560   10.9040 C.3   154  HIS154      0.0745
    108  CG        47.3070   59.7300   12.2680 C.ar  154  HIS154      0.0817
    109  ND1       47.8810   59.0840   13.2950 N.ar  154  HIS154     -0.2268
    110  CD2       46.8090   60.9590   12.6890 C.ar  154  HIS154      0.1154
    111  CE1       47.7530   59.8780   14.4050 C.ar  154  HIS154      0.1986
    112  NE2       47.0960   61.0130   14.0100 N.ar  154  HIS154     -0.2212
    113  N         55.0070   55.4210   15.4500 N.3   180  ALA180     -0.1231
    114  CA        53.9630   54.7070   16.1950 C.3   180  ALA180      0.1694
    115  C         52.6100   55.0700   15.5040 C.2   180  ALA180      0.2592
    116  O         52.5630   55.8540   14.5950 O.2   180  ALA180     -0.2718
    117  CB        53.8710   55.2790   17.7640 C.3   180  ALA180      0.0304
    118  N         51.5310   54.3570   15.8920 N.am  181  GLY181     -0.1957
    119  CA        50.0940   54.4210   15.4360 C.3   181  GLY181      0.1869
    120  C         49.6580   53.3350   14.4820 C.2   181  GLY181      0.2309
    121  O         49.9430   52.1670   14.6130 O.2   181  GLY181     -0.2863
    122  N         57.6060   51.0040   14.8620 N.3   211  HIS211     -0.1241
    123  CA        56.7090   49.8220   14.9810 C.3   211  HIS211      0.1621
    124  C         56.3080   49.1220   13.6370 C.2   211  HIS211      0.2264
    125  O         55.7690   49.7400   12.7360 O.2   211  HIS211     -0.2867
    126  CB        55.3420   50.3430   15.6480 C.3   211  HIS211      0.0745
    127  CG        55.4910   50.7290   17.1240 C.ar  211  HIS211      0.0817
    128  ND1       56.1850   51.7790   17.5860 N.ar  211  HIS211     -0.2268
    129  CD2       54.6530   50.2420   18.1580 C.ar  211  HIS211      0.1154
    130  CE1       55.7610   51.9530   18.8000 C.ar  211  HIS211      0.1986
    131  NE2       54.7940   51.0740   19.2040 N.ar  211  HIS211     -0.2212
    132  N         53.5270   44.2920   13.5460 N.3   214  GLU214     -0.1245
    133  CA        52.7160   43.8440   14.7380 C.3   214  GLU214      0.1567
    134  C         51.3260   43.3490   14.2740 C.2   214  GLU214      0.2260
    135  O         50.8820   42.2360   14.4250 O.2   214  GLU214     -0.2867
    136  CB        52.4560   45.0000   15.7060 C.3   214  GLU214      0.0388
    137  CG        51.4050   44.7450   16.8870 C.3   214  GLU214      0.1160
    138  CD        51.0310   46.0280   17.6410 C.2   214  GLU214      0.3649
    139  OE1       51.4200   47.0880   17.2100 O.co2 214  GLU214     -0.2457
    140  OE2       50.4050   46.0510   18.7100 O.co2 214  GLU214     -0.2457
    141  N         54.6660   47.2460   26.6480 N.3   292  ASP292     -0.1225
    142  CA        53.9130   48.1720   25.7460 C.3   292  ASP292      0.1805
    143  C         53.1040   49.2740   26.4840 C.2   292  ASP292      0.2597
    144  O         53.4540   50.4480   26.5690 O.2   292  ASP292     -0.2718
    145  CB        53.1550   47.1630   24.7840 C.3   292  ASP292      0.1424
    146  CG        52.8790   47.8430   23.4370 C.2   292  ASP292      0.3668
    147  OD1       52.1770   47.2260   22.5710 O.co2 292  ASP292     -0.2456
    148  OD2       53.4030   48.9430   23.3000 O.co2 292  ASP292     -0.2456
    149  N         51.9090   48.8090   27.1120 N.am  293  ASP293     -0.1974
    150  CA        50.9450   49.7310   27.7090 C.3   293  ASP293      0.1709
    151  C         50.3600   49.0180   29.0190 C.2   293  ASP293      0.2293
    152  O         49.2530   48.4530   29.0540 O.2   293  ASP293     -0.2864
    153  CB        49.7370   50.0670   26.7740 C.3   293  ASP293      0.1436
    154  CG        50.2560   50.6810   25.5370 C.2   293  ASP293      0.3671
    155  OD1       50.1720   51.8970   25.4760 O.co2 293  ASP293     -0.2456
    156  OD2       50.8390   49.9530   24.7280 O.co2 293  ASP293     -0.2456
    157  N         46.7760   47.2340   29.5320 N.3   297  PHE297     -0.1298
    158  CA        46.7460   45.8220   29.6640 C.3   297  PHE297      0.1290
    159  C         46.6300   45.2080   31.1080 C.3   297  PHE297      0.2013
    160  O         46.8290   43.9960   31.1400 O.3   297  PHE297     -0.2188
    161  CB        47.9770   45.2340   28.8760 C.3   297  PHE297      0.0480
    162  CG        48.0390   45.8260   27.4490 C.ar  297  PHE297     -0.0206
    163  CD1       46.8280   46.0160   26.6840 C.ar  297  PHE297     -0.0042
    164  CD2       49.3120   46.1820   26.8880 C.ar  297  PHE297     -0.0042
    165  CE1       46.8550   46.4080   25.2730 C.ar  297  PHE297     -0.0003
    166  CE2       49.3020   46.6190   25.5250 C.ar  297  PHE297     -0.0003
    167  CZ        48.1320   46.6800   24.6980 C.ar  297  PHE297     -0.0000
@<TRIPOS>BOND
     1   106   105    2
     2   105   104    1
     3   104   107    1
     4   104   103    1
     5   107   108    1
     6    98    97    2
     7   108   110   ar
     8   108   109   ar
     9   110   112   ar
    10   125   124    2
    11    97    96    1
    12   109   111   ar
    13   132   133    1
    14   124   123    1
    15   112   111   ar
    16   134   135    2
    17   134   133    1
    18    96    95    1
    19    96    99    1
    20   120   121    2
    21   120   119    1
    22   116   115    2
    23   133   136    1
    24   122   123    1
    25   123   126    1
    26    99   100    1
    27   119   118    1
    28   113   114    1
    29   115   118   am
    30   115   114    1
    31   126   127    1
    32   136   137    1
    33   114   117    1
    34   100   101    1
    35    36    35    1
    36   137   138    1
    37   102   101    1
    38   127   128   ar
    39   127   129   ar
    40   139   138   ar
    41    91    92    2
    42    91    90    1
    43   128   130   ar
    44   138   140   ar
    45   129   131   ar
    46    35    37    1
    47    35    34    1
    48    90    93    1
    49    90    89    1
    50   130   131   ar
    51    93    94    1
    52    34    31    1
    53    74    72    1
    54    66    65    1
    55    72    73    1
    56    72    71    1
    57    65    62    1
    58    30    31    1
    59    30    21   am
    60    31    32    1
    61    26    28   ar
    62    26    24   ar
    63    23    24    1
    64    23    20    1
    65    19    20    1
    66    75    76    1
    67    62    63    1
    68    62    61    1
    69    28    29   ar
    70    67    68    1
    71    32    33    2
    72    24    25   ar
    73     9    10   ar
    74     9     7   ar
    75    71    68    1
    76    20    21    1
    77    21    22    2
    78    87    88   ar
    79    87    85   ar
    80    68    69    1
    81    10     8   ar
    82    63    64    2
    83    88    86   ar
    84    76    77    1
    85    76    79    1
    86    52    51    2
    87    61    51   am
    88    77    78    2
    89    85    82   ar
    90    29    27   ar
    91   147   146   ar
    92    51    50    1
    93     7     6   ar
    94    86    84   ar
    95    25    27   ar
    96    82    84   ar
    97    82    80   ar
    98    84    83   ar
    99    46    44   ar
   100    46    48   ar
   101    44    43   ar
   102   148   146   ar
   103    80    79    1
   104    80    81   ar
   105    69    70    2
   106   146   145    1
   107     8     6   ar
   108    83    81   ar
   109    50    49    1
   110    50    53    1
   111     6     5    1
   112    48    47   ar
   113    43    42    1
   114    43    45   ar
   115    42    39    1
   116    17    16   ar
   117   167   165   ar
   118   167   166   ar
   119    47    45   ar
   120   156   154   ar
   121   145   142    1
   122    38    39    1
   123    53    54    1
   124    55    54   ar
   125    55    57   ar
   126     5     2    1
   127    18    16   ar
   128    39    40    1
   129    16    15    1
   130   165   163   ar
   131    54    56   ar
   132    57    59   ar
   133    40    41    2
   134   155   154   ar
   135   166   164   ar
   136   154   153    1
   137   142   143    1
   138   142   141    1
   139    56    58   ar
   140    59    60    1
   141    59    58   ar
   142     2     1    1
   143     2     3    1
   144   143   144    2
   145   143   149   am
   146    15    12    1
   147   163   162   ar
   148   153   150    1
   149   164   162   ar
   150   149   150    1
   151     3     4    2
   152   162   161    1
   153   150   151    1
   154    12    11    1
   155    12    13    1
   156    13    14    2
   157   161   158    1
   158   151   152    2
   159   157   158    1
   160   158   159    1
   161   159   160    1
