@<TRIPOS>MOLECULE
tmp/1ndzA00.pdb
 241 232 0 0 0
SMALL
GASTEIGER

@<TRIPOS>ATOM
      1  N         55.9120   52.7080   26.3730 N.3    14  HIS14      -0.1241
      2  CA        55.5180   54.1210   26.1200 C.3    14  HIS14       0.1621
      3  C         55.0160   54.9660   27.4050 C.2    14  HIS14       0.2264
      4  O         54.0990   54.5030   28.0790 O.2    14  HIS14      -0.2867
      5  CB        54.2230   54.2370   25.1280 C.3    14  HIS14       0.0745
      6  CG        54.3030   53.5900   23.7700 C.ar   14  HIS14       0.0817
      7  ND1       54.3660   54.4020   22.7290 N.ar   14  HIS14      -0.2268
      8  CD2       54.4500   52.2460   23.3420 C.ar   14  HIS14       0.1154
      9  CE1       54.5420   53.5040   21.6490 C.ar   14  HIS14       0.1986
     10  NE2       54.6770   52.1100   21.9020 N.ar   14  HIS14      -0.2212
     11  N         53.1710   57.4090   27.8140 N.3    16  ASP16      -0.1225
     12  CA        51.7420   57.7310   27.8170 C.3    16  ASP16       0.1805
     13  C         50.8630   56.5490   27.9400 C.2    16  ASP16       0.2598
     14  O         49.6250   56.6260   28.1400 O.2    16  ASP16      -0.2718
     15  CB        51.2420   58.7390   26.7300 C.3    16  ASP16       0.1424
     16  CG        51.6270   58.1970   25.2590 C.2    16  ASP16       0.3668
     17  OD1       51.0750   58.6180   24.2190 O.co2  16  ASP16      -0.2456
     18  OD2       52.6010   57.4450   25.1810 O.co2  16  ASP16      -0.2456
     19  N         51.4330   55.4290   27.8360 N.am   17  GLY17      -0.1957
     20  CA        50.6160   54.3510   28.3090 C.3    17  GLY17       0.1869
     21  C         51.1920   53.6060   29.5900 C.2    17  GLY17       0.2309
     22  O         50.9300   52.4490   29.8550 O.2    17  GLY17      -0.2863
     23  N         42.6050   46.2300   29.4470 N.3    49  MET49      -0.1245
     24  CA        41.9330   45.1810   28.6960 C.3    49  MET49       0.1570
     25  C         42.2510   43.7640   29.2340 C.2    49  MET49       0.2261
     26  O         43.3540   43.4200   29.6420 O.2    49  MET49      -0.2867
     27  CB        42.3020   45.2240   27.2020 C.3    49  MET49       0.0387
     28  CG        42.2900   46.6300   26.5120 C.3    49  MET49       0.0595
     29  SD        43.4130   46.6000   25.0600 S.3    49  MET49      -0.1393
     30  CE        42.8170   45.4990   23.8730 C.3    49  MET49       0.0692
     31  N         40.6350   43.9890   21.2410 N.3    53  LEU53      -0.1231
     32  CA        39.5450   44.7650   20.7190 C.3    53  LEU53       0.1693
     33  C         39.8970   45.4440   19.4180 C.2    53  LEU53       0.2593
     34  O         40.9800   45.3500   18.8690 O.2    53  LEU53      -0.2718
     35  CB        38.9020   45.6830   21.8660 C.3    53  LEU53       0.0284
     36  CG        39.7430   46.2830   22.9540 C.3    53  LEU53       0.0019
     37  CD1       40.4400   47.5210   22.4220 C.3    53  LEU53       0.0001
     38  CD2       38.9950   46.5910   24.2330 C.3    53  LEU53       0.0001
     39  N         38.9410   46.1820   18.8760 N.am   54  THR54      -0.1939
     40  CA        39.3870   46.9380   17.6980 C.3    54  THR54       0.2028
     41  C         40.2980   48.1390   17.9840 C.2    54  THR54       0.2642
     42  O         40.2910   48.6460   19.0790 O.2    54  THR54      -0.2714
     43  CB        38.1320   47.4240   16.9140 C.3    54  THR54       0.1808
     44  OG1       38.4590   48.0450   15.6400 O.3    54  THR54      -0.2208
     45  CG2       37.3870   48.3240   17.8300 C.3    54  THR54       0.0379
     46  N         40.9900   48.6450   16.9280 N.am   55  LEU55      -0.1977
     47  CA        41.6240   50.0170   17.1500 C.3    55  LEU55       0.1596
     48  C         40.8400   51.1600   17.6070 C.2    55  LEU55       0.2287
     49  O         41.2030   51.9200   18.4700 O.2    55  LEU55      -0.2864
     50  CB        42.0770   50.9160   16.0560 C.3    55  LEU55       0.0297
     51  CG        43.3550   50.7520   15.4560 C.3    55  LEU55       0.0022
     52  CD1       43.2690   49.3220   14.9960 C.3    55  LEU55       0.0001
     53  CD2       43.7330   51.8930   14.5150 C.3    55  LEU55       0.0001
     54  N         40.4440   50.6740   21.1730 N.3    58  PHE58      -0.1227
     55  CA        41.7610   51.1030   21.7160 C.3    58  PHE58       0.1736
     56  C         42.0660   52.5910   21.8620 C.2    58  PHE58       0.2595
     57  O         42.4760   53.0440   22.9510 O.2    58  PHE58      -0.2718
     58  CB        42.9070   50.2630   21.0050 C.3    58  PHE58       0.0547
     59  CG        44.2720   50.6200   21.6140 C.ar   58  PHE58      -0.0202
     60  CD1       44.5870   50.2160   22.9650 C.ar   58  PHE58      -0.0042
     61  CD2       45.2480   51.2690   20.8360 C.ar   58  PHE58      -0.0042
     62  CE1       45.8850   50.3930   23.4430 C.ar   58  PHE58      -0.0003
     63  CE2       46.5450   51.5020   21.3810 C.ar   58  PHE58      -0.0003
     64  CZ        46.8550   51.0530   22.6690 C.ar   58  PHE58      -0.0000
     65  N         41.9620   53.3760   20.7010 N.am   59  LEU59      -0.1980
     66  CA        42.3540   54.8240   20.7870 C.3    59  LEU59       0.1596
     67  C         41.5390   55.6940   21.7540 C.2    59  LEU59       0.2287
     68  O         41.9290   56.7580   22.2420 O.2    59  LEU59      -0.2864
     69  CB        42.4360   55.4800   19.3560 C.3    59  LEU59       0.0297
     70  CG        43.1830   54.6690   18.2780 C.3    59  LEU59       0.0022
     71  CD1       43.4190   55.2950   16.8710 C.3    59  LEU59       0.0001
     72  CD2       44.6150   54.6450   18.6610 C.3    59  LEU59       0.0001
     73  N         42.9570   56.4210   25.0380 N.3    62  PHE62      -0.1241
     74  CA        43.6940   57.6950   25.1800 C.3    62  PHE62       0.1605
     75  C         42.7860   58.9640   25.2950 C.2    62  PHE62       0.2264
     76  O         43.0270   59.9490   25.9880 O.2    62  PHE62      -0.2867
     77  CB        44.7190   57.8380   24.0530 C.3    62  PHE62       0.0534
     78  CG        45.8530   56.7950   24.2390 C.ar   62  PHE62      -0.0203
     79  CD1       45.8790   55.6360   23.4490 C.ar   62  PHE62      -0.0042
     80  CD2       46.9110   57.0830   25.1530 C.ar   62  PHE62      -0.0042
     81  CE1       47.0020   54.7440   23.5260 C.ar   62  PHE62      -0.0003
     82  CE2       48.0550   56.2180   25.1700 C.ar   62  PHE62      -0.0003
     83  CZ        48.0440   55.0920   24.3800 C.ar   62  PHE62      -0.0000
     84  N         57.6960   58.2700   23.7060 N.3    99  TYR99      -0.1227
     85  CA        56.4840   59.0770   23.6650 C.3    99  TYR99       0.1736
     86  C         56.4740   60.0630   22.6080 C.2    99  TYR99       0.2596
     87  O         57.5140   60.4880   22.1630 O.2    99  TYR99      -0.2718
     88  CB        56.1310   59.7520   25.1210 C.3    99  TYR99       0.0548
     89  CG        57.1990   60.8580   25.4390 C.ar   99  TYR99      -0.0200
     90  CD1       56.8630   62.2520   25.1770 C.ar   99  TYR99      -0.0009
     91  CD2       58.5000   60.4870   25.8910 C.ar   99  TYR99      -0.0009
     92  CE1       57.8180   63.2200   25.2140 C.ar   99  TYR99       0.0417
     93  CE2       59.4640   61.4760   25.9570 C.ar   99  TYR99       0.0417
     94  CZ        59.1050   62.8040   25.6550 C.ar   99  TYR99       0.1957
     95  OH        60.0010   63.7660   25.8680 O.3    99  TYR99      -0.2866
     96  N         55.2920   60.5540   22.1790 N.am  100  SER100     -0.1952
     97  CA        55.2640   61.6650   21.3250 C.3   100  SER100      0.1924
     98  C         55.0970   62.9730   22.0860 C.2   100  SER100      0.2314
     99  O         54.0890   63.0950   22.7710 O.2   100  SER100     -0.2863
    100  CB        54.0890   61.4400   20.3960 C.3   100  SER100      0.2116
    101  OG        53.6340   62.7880   19.8710 O.3   100  SER100     -0.2180
    102  N         51.7360   64.8510   21.5910 N.3   103  LEU103     -0.1245
    103  CA        50.5510   64.3220   22.1900 C.3   103  LEU103      0.1561
    104  C         50.2640   64.7640   23.7280 C.2   103  LEU103      0.2260
    105  O         49.2440   64.4420   24.3530 O.2   103  LEU103     -0.2867
    106  CB        50.4230   62.8100   21.9420 C.3   103  LEU103      0.0270
    107  CG        50.2660   62.4520   20.4120 C.3   103  LEU103      0.0019
    108  CD1       50.1630   60.9110   20.1980 C.3   103  LEU103      0.0001
    109  CD2       48.9290   63.1210   19.9260 C.3   103  LEU103      0.0001
    110  N         43.2620   65.4690   21.2710 N.3   114  TRP114     -0.1241
    111  CA        42.3460   65.0520   22.4070 C.3   114  TRP114      0.1605
    112  C         41.1870   66.0710   22.7220 C.2   114  TRP114      0.2264
    113  O         40.8310   66.2920   23.8830 O.2   114  TRP114     -0.2867
    114  CB        43.0580   64.8280   23.8290 C.3   114  TRP114      0.0550
    115  CG        44.3720   64.0500   23.6220 C.ar  114  TRP114      0.0003
    116  CD1       45.6140   64.4770   23.9280 C.ar  114  TRP114      0.0946
    117  CD2       44.6910   62.8020   23.0090 C.ar  114  TRP114      0.0152
    118  NE1       46.6920   63.6750   23.6290 N.ar  114  TRP114     -0.2442
    119  CE2       46.1410   62.5650   23.0950 C.ar  114  TRP114      0.0810
    120  CE3       43.8720   61.7940   22.4940 C.ar  114  TRP114      0.0012
    121  CZ2       46.6790   61.3950   22.6150 C.ar  114  TRP114      0.0191
    122  CZ3       44.4810   60.6200   22.0130 C.ar  114  TRP114      0.0001
    123  CH2       45.8800   60.4000   22.1290 C.ar  114  TRP114      0.0015
    124  N         58.7300   59.9330   19.4730 N.3   150  CYS150     -0.1235
    125  CA        58.0160   59.3120   18.3930 C.3   150  CYS150      0.1677
    126  C         57.4040   60.3020   17.4730 C.2   150  CYS150      0.2270
    127  O         56.6940   61.2130   17.8550 O.2   150  CYS150     -0.2867
    128  CB        56.8270   58.6970   19.0920 C.3   150  CYS150      0.0956
    129  SG        57.1300   57.3180   20.3250 S.3   150  CYS150     -0.0801
    130  N         54.6260   60.3700   14.4170 N.3   152  MET152     -0.1245
    131  CA        53.3000   59.5150   14.4330 C.3   152  MET152      0.1570
    132  C         52.9090   59.2990   12.9170 C.2   152  MET152      0.2261
    133  O         52.8550   60.2400   12.1720 O.2   152  MET152     -0.2867
    134  CB        52.1220   60.4510   15.0980 C.3   152  MET152      0.0387
    135  CG        52.3880   60.7860   16.6350 C.3   152  MET152      0.0595
    136  SD        52.3460   59.1330   17.4590 S.3   152  MET152     -0.1393
    137  CE        50.9680   58.2180   17.2940 C.3   152  MET152      0.0692
    138  N         50.3490   59.0950   11.0230 N.3   154  HIS154     -0.1241
    139  CA        49.2970   59.9500   10.4010 C.3   154  HIS154      0.1621
    140  C         49.5930   61.4070   10.2720 C.2   154  HIS154      0.2264
    141  O         48.8620   62.2480    9.7210 O.2   154  HIS154     -0.2867
    142  CB        47.9570   59.7490   11.1410 C.3   154  HIS154      0.0745
    143  CG        48.0140   60.3050   12.5580 C.ar  154  HIS154      0.0817
    144  ND1       48.5390   59.6420   13.6140 N.ar  154  HIS154     -0.2268
    145  CD2       47.3760   61.5120   12.9700 C.ar  154  HIS154      0.1154
    146  CE1       48.1900   60.3570   14.7420 C.ar  154  HIS154      0.1986
    147  NE2       47.5030   61.5530   14.3250 N.ar  154  HIS154     -0.2212
    148  N         55.6930   55.7250   15.3490 N.3   180  ALA180     -0.1231
    149  CA        54.5940   54.9980   15.9670 C.3   180  ALA180      0.1694
    150  C         53.1720   55.5580   15.4250 C.2   180  ALA180      0.2593
    151  O         53.0870   56.4090   14.5570 O.2   180  ALA180     -0.2718
    152  CB        54.6090   55.5490   17.3790 C.3   180  ALA180      0.0304
    153  N         52.0630   54.9330   15.9100 N.am  181  GLY181     -0.1942
    154  CA        50.7500   55.0710   15.2020 C.3   181  GLY181      0.2014
    155  C         50.2400   53.9390   14.4730 C.2   181  GLY181      0.2639
    156  O         50.6220   52.7990   14.6400 O.2   181  GLY181     -0.2714
    157  N         49.3510   54.2950   13.5530 N.am  182  ASP182     -0.1957
    158  CA        48.7960   53.2470   12.6860 C.3   182  ASP182      0.1840
    159  C         49.6270   52.8180   11.4720 C.2   182  ASP182      0.2624
    160  O         49.7230   53.5110   10.4410 O.2   182  ASP182     -0.2715
    161  CB        47.2820   53.6090   12.3940 C.3   182  ASP182      0.1450
    162  CG        46.6760   52.5080   11.5230 C.2   182  ASP182      0.3671
    163  OD1       45.6370   52.7780   10.9360 O.co2 182  ASP182     -0.2456
    164  OD2       47.2230   51.4600   11.2190 O.co2 182  ASP182     -0.2456
    165  N         50.2540   51.6720   11.6980 N.am  183  GLU183     -0.1932
    166  CA        51.2460   51.2730   10.6610 C.3   183  GLU183      0.1818
    167  C         50.5660   50.6670    9.4290 C.2   183  GLU183      0.2332
    168  O         51.2160   50.3550    8.4510 O.2   183  GLU183     -0.2860
    169  CB        52.3820   50.3420   11.1130 C.2   183  GLU183      0.0097
    170  CG        51.9820   48.9480   11.5010 C.2   183  GLU183      0.0837
    171  CD        52.9420   47.8010   11.5570 C.2   183  GLU183      0.3877
    172  OE1       53.6130   47.4690   10.5570 O.co2 183  GLU183     -0.2406
    173  OE2       52.9040   47.2120   12.6450 O.co2 183  GLU183     -0.2406
    174  N         58.3440   51.3510   14.8420 N.3   211  HIS211     -0.1241
    175  CA        57.3830   50.3110   14.9390 C.3   211  HIS211      0.1621
    176  C         56.9060   49.7380   13.5530 C.2   211  HIS211      0.2264
    177  O         56.4800   50.4390   12.6700 O.2   211  HIS211     -0.2867
    178  CB        55.9290   50.6650   15.6270 C.3   211  HIS211      0.0745
    179  CG        55.9210   51.0610   17.0610 C.ar  211  HIS211      0.0817
    180  ND1       56.6410   51.9870   17.5140 N.ar  211  HIS211     -0.2268
    181  CD2       55.0850   50.6140   18.1140 C.ar  211  HIS211      0.1154
    182  CE1       56.3190   52.1820   18.8190 C.ar  211  HIS211      0.1986
    183  NE2       55.3560   51.3680   19.2120 N.ar  211  HIS211     -0.2212
    184  N         54.1050   44.7110   13.3590 N.3   214  GLU214     -0.1231
    185  CA        53.2390   44.3930   14.5420 C.3   214  GLU214      0.1699
    186  C         51.8540   43.8620   14.0810 C.2   214  GLU214      0.2592
    187  O         51.5450   42.7030   14.3420 O.2   214  GLU214     -0.2718
    188  CB        53.0930   45.5370   15.5550 C.3   214  GLU214      0.0402
    189  CG        52.0770   45.2450   16.7150 C.3   214  GLU214      0.1161
    190  CD        51.8640   46.4180   17.5890 C.2   214  GLU214      0.3649
    191  OE1       52.0400   47.4420   17.0400 O.co2 214  GLU214     -0.2457
    192  OE2       51.3950   46.3800   18.7170 O.co2 214  GLU214     -0.2457
    193  N         51.2380   44.7700   13.3340 N.am  215  VAL215     -0.1980
    194  CA        49.9540   44.5660   12.6460 C.3   215  VAL215      0.1595
    195  C         50.0310   44.8120   11.0980 C.2   215  VAL215      0.2287
    196  O         49.2340   44.3290   10.2930 O.2   215  VAL215     -0.2864
    197  CB        48.9720   45.3210   13.4520 C.3   215  VAL215      0.0276
    198  CG1       48.6960   46.7380   13.2850 C.3   215  VAL215      0.0022
    199  CG2       48.1800   44.4650   14.4690 C.3   215  VAL215      0.0022
    200  N         46.8780   40.9450   23.3640 N.3   265  LEU265     -0.1231
    201  CA        45.8070   41.8980   23.4580 C.3   265  LEU265      0.1693
    202  C         45.5950   42.8420   22.3300 C.2   265  LEU265      0.2592
    203  O         44.6440   43.6330   22.2910 O.2   265  LEU265     -0.2718
    204  CB        45.8870   42.8990   24.6950 C.3   265  LEU265      0.0284
    205  CG        45.5640   42.2780   26.0350 C.3   265  LEU265      0.0019
    206  CD1       45.9850   43.1210   27.2650 C.3   265  LEU265      0.0001
    207  CD2       44.2680   41.4550   26.0690 C.3   265  LEU265      0.0001
    208  N         46.5510   42.8630   21.4260 N.am  266  THR266     -0.1953
    209  CA        46.2690   43.8310   20.4010 C.3   266  THR266      0.1897
    210  C         45.7410   43.1190   19.0830 C.2   266  THR266      0.2313
    211  O         45.6230   43.7460   18.0530 O.2   266  THR266     -0.2863
    212  CB        47.5020   44.6230   20.0570 C.3   266  THR266      0.1794
    213  OG1       48.4660   43.7560   19.4420 O.3   266  THR266     -0.2208
    214  CG2       48.0450   45.4000   21.3100 C.3   266  THR266      0.0378
    215  N         55.3680   47.6070   26.6430 N.3   292  ASP292     -0.1225
    216  CA        54.6430   48.5520   25.7590 C.3   292  ASP292      0.1805
    217  C         53.7340   49.5420   26.4320 C.2   292  ASP292      0.2597
    218  O         54.0030   50.7350   26.4100 O.2   292  ASP292     -0.2718
    219  CB        53.7810   47.6510   24.7220 C.3   292  ASP292      0.1424
    220  CG        53.6080   48.2880   23.3370 C.2   292  ASP292      0.3668
    221  OD1       52.8950   47.6340   22.5480 O.co2 292  ASP292     -0.2456
    222  OD2       54.1950   49.3560   23.0680 O.co2 292  ASP292     -0.2456
    223  N         52.5760   48.9940   27.0560 N.am  293  ASP293     -0.1974
    224  CA        51.5970   49.9800   27.6560 C.3   293  ASP293      0.1709
    225  C         50.9360   49.1640   28.8830 C.2   293  ASP293      0.2293
    226  O         49.8320   48.6650   28.8070 O.2   293  ASP293     -0.2864
    227  CB        50.3820   50.2980   26.7280 C.3   293  ASP293      0.1436
    228  CG        50.8430   50.9730   25.4510 C.2   293  ASP293      0.3671
    229  OD1       50.7180   52.1710   25.3530 O.co2 293  ASP293     -0.2456
    230  OD2       51.4480   50.3150   24.6540 O.co2 293  ASP293     -0.2456
    231  N         47.4380   47.3230   29.3840 N.3   297  PHE297     -0.1241
    232  CA        47.3370   45.8830   29.3700 C.3   297  PHE297      0.1605
    233  C         47.2950   45.2890   30.7750 C.2   297  PHE297      0.2264
    234  O         47.6090   44.1030   30.9910 O.2   297  PHE297     -0.2867
    235  CB        48.5540   45.3530   28.5480 C.3   297  PHE297      0.0534
    236  CG        48.7330   46.0650   27.1680 C.ar  297  PHE297     -0.0203
    237  CD1       47.5090   46.2980   26.3790 C.ar  297  PHE297     -0.0042
    238  CD2       49.9530   46.5420   26.6330 C.ar  297  PHE297     -0.0042
    239  CE1       47.5510   46.6820   25.0370 C.ar  297  PHE297     -0.0003
    240  CE2       49.9760   47.0220   25.3170 C.ar  297  PHE297     -0.0003
    241  CZ        48.8230   47.0090   24.5010 C.ar  297  PHE297     -0.0000
@<TRIPOS>BOND
     1   168   167    2
     2   167   166    1
     3   141   140    2
     4   140   139    1
     5   196   195    2
     6   139   138    1
     7   139   142    1
     8   160   159    2
     9   172   171   ar
    10   166   169    1
    11   166   165    1
    12   163   162   ar
    13   195   194    1
    14   169   170    2
    15   142   143    1
    16   164   162   ar
    17   159   165   am
    18   159   158    1
    19   170   171    1
    20   162   161    1
    21   171   173   ar
    22   133   132    2
    23   161   158    1
    24   143   145   ar
    25   143   144   ar
    26   194   193    1
    27   194   197    1
    28   177   176    2
    29   158   157    1
    30   132   131    1
    31   145   147   ar
    32   198   197    1
    33   193   186   am
    34   184   185    1
    35   197   199    1
    36   176   175    1
    37   157   155   am
    38   144   146   ar
    39   186   187    2
    40   186   185    1
    41   147   146   ar
    42   130   131    1
    43   131   134    1
    44   155   156    2
    45   155   154    1
    46    53    51    1
    47   185   188    1
    48   151   150    2
    49   174   175    1
    50   175   178    1
    51    52    51    1
    52   134   135    1
    53   154   153    1
    54   148   149    1
    55   150   153   am
    56   150   149    1
    57    51    50    1
    58   188   189    1
    59   178   179    1
    60    44    43    1
    61   149   152    1
    62    50    47    1
    63   135   136    1
    64   189   190    1
    65    71    70    1
    66    43    40    1
    67    43    45    1
    68    46    47    1
    69    46    41   am
    70   191   190   ar
    71   179   180   ar
    72   179   181   ar
    73    47    48    1
    74   137   136    1
    75   126   127    2
    76   126   125    1
    77   180   182   ar
    78   190   192   ar
    79    48    49    2
    80    40    41    1
    81    40    39    1
    82    41    42    2
    83   211   210    2
    84   181   183   ar
    85    70    72    1
    86    70    69    1
    87   125   128    1
    88   125   124    1
    89   182   183   ar
    90    34    33    2
    91    39    33   am
    92   210   209    1
    93   128   129    1
    94    69    66    1
    95    33    32    1
    96   213   212    1
    97   101   100    1
    98   109   107    1
    99   212   209    1
   100   212   214    1
   101   108   107    1
   102   100    97    1
   103   209   208    1
   104   107   106    1
   105    65    66    1
   106    65    56   am
   107    32    31    1
   108    32    35    1
   109    66    67    1
   110    61    63   ar
   111    61    59   ar
   112    58    59    1
   113    58    55    1
   114    54    55    1
   115   110   111    1
   116    97    98    1
   117    97    96    1
   118    63    64   ar
   119   208   202   am
   120   102   103    1
   121    59    60   ar
   122     9    10   ar
   123     9     7   ar
   124    55    56    1
   125    67    68    2
   126    56    57    2
   127    35    36    1
   128    10     8   ar
   129   106   103    1
   130   122   123   ar
   131   122   120   ar
   132    98    99    2
   133   123   121   ar
   134    87    86    2
   135    96    86   am
   136   103   104    1
   137   203   202    2
   138   202   201    1
   139   111   112    1
   140   111   114    1
   141    37    36    1
   142   120   117   ar
   143   221   220   ar
   144    86    85    1
   145   121   119   ar
   146    64    62   ar
   147   112   113    2
   148     7     6   ar
   149    36    38    1
   150    60    62   ar
   151   117   119   ar
   152   117   115   ar
   153   222   220   ar
   154   119   118   ar
   155   220   219    1
   156     8     6   ar
   157   200   201    1
   158    79    81   ar
   159    79    78   ar
   160   201   204    1
   161    81    83   ar
   162   115   114    1
   163   115   116   ar
   164   118   116   ar
   165    85    84    1
   166    85    88    1
   167   104   105    2
   168     6     5    1
   169    30    29    1
   170    77    78    1
   171    77    74    1
   172    17    16   ar
   173    78    80   ar
   174    83    82   ar
   175   241   239   ar
   176   241   240   ar
   177   230   228   ar
   178   204   205    1
   179   219   216    1
   180   239   237   ar
   181    73    74    1
   182    29    28    1
   183    88    89    1
   184     5     2    1
   185    80    82   ar
   186    90    92   ar
   187    90    89   ar
   188    74    75    1
   189    18    16   ar
   190    92    94   ar
   191    16    15    1
   192    75    76    2
   193   240   238   ar
   194   229   228   ar
   195    89    91   ar
   196   228   227    1
   197    94    95    1
   198    94    93   ar
   199   216   217    1
   200   216   215    1
   201    91    93   ar
   202   205   207    1
   203   205   206    1
   204     2     1    1
   205     2     3    1
   206   237   236   ar
   207   218   217    2
   208   217   223   am
   209    28    27    1
   210   238   236   ar
   211   227   224    1
   212    15    12    1
   213   223   224    1
   214   236   235    1
   215    27    24    1
   216     3     4    2
   217   224   225    1
   218    11    12    1
   219    12    13    1
   220    19    13   am
   221    19    20    1
   222    13    14    2
   223    20    21    1
   224   235   232    1
   225    24    25    1
   226    24    23    1
   227   226   225    2
   228    25    26    2
   229   232   231    1
   230   232   233    1
   231    21    22    2
   232   233   234    2
