@<TRIPOS>MOLECULE
tmp/1ne7A02.pdb
 73 68 0 0 0
SMALL
GASTEIGER

@<TRIPOS>ATOM
      1  N          7.6040    1.7720  -40.8330 N.3   115  GLN115     -0.1245
      2  CA         7.5550    1.8740  -39.3790 C.3   115  GLN115      0.1566
      3  C          8.1960    3.1650  -38.8870 C.2   115  GLN115      0.2260
      4  O          7.7560    3.7430  -37.8940 O.2   115  GLN115     -0.2867
      5  CB         8.2350    0.6720  -38.7190 C.3   115  GLN115      0.0367
      6  CG         8.0540    0.6360  -37.2020 C.3   115  GLN115      0.0905
      7  CD         6.5910    0.6740  -36.7850 C.2   115  GLN115      0.2608
      8  OE1        5.7980   -0.1730  -37.1900 O.2   115  GLN115     -0.2717
      9  NE2        6.2300    1.6600  -35.9710 N.am  115  GLN115     -0.0878
     10  N         -8.9680   -7.7180  -33.9210 N.3   150  GLY150     -0.1210
     11  CA        -7.7880   -8.4290  -33.4610 C.3   150  GLY150      0.1956
     12  C         -6.5850   -7.5330  -33.2310 C.2   150  GLY150      0.2613
     13  O         -5.4710   -8.0300  -33.0640 O.2   150  GLY150     -0.2717
     14  N         -6.8050   -6.2180  -33.2330 N.am  151  SER151     -0.1938
     15  CA        -5.7340   -5.2440  -33.0060 C.3   151  SER151      0.2055
     16  C         -5.6090   -4.9420  -31.5220 C.2   151  SER151      0.2643
     17  O         -6.6090   -4.8960  -30.8060 O.2   151  SER151     -0.2714
     18  CB        -6.0280   -3.9250  -33.7330 C.3   151  SER151      0.2130
     19  OG        -6.0570   -4.0850  -35.1350 O.3   151  SER151     -0.2179
     20  N         -4.3790   -4.7280  -31.0620 N.am  152  SER152     -0.1949
     21  CA        -4.1520   -4.4030  -29.6620 C.3   152  SER152      0.1924
     22  C         -4.9120   -3.1330  -29.3140 C.2   152  SER152      0.2314
     23  O         -4.8750   -2.1540  -30.0610 O.2   152  SER152     -0.2863
     24  CB        -2.6710   -4.1650  -29.3990 C.3   152  SER152      0.2116
     25  OG        -2.4990   -3.6040  -28.1100 O.3   152  SER152     -0.2180
     26  N         -2.4810   -0.2140  -28.9380 N.3   155  SER155     -0.1217
     27  CA        -1.5800   -0.0740  -30.0750 C.3   155  SER155      0.1889
     28  C         -1.2300    1.3760  -30.3990 C.2   155  SER155      0.2288
     29  O         -1.9860    2.2990  -30.0950 O.2   155  SER155     -0.2866
     30  CB        -2.2110   -0.7220  -31.3120 C.3   155  SER155      0.2089
     31  OG        -3.5180   -0.2030  -31.5360 O.3   155  SER155     -0.2183
     32  N          1.1450    2.3030  -36.6650 N.3   158  ARG158     -0.1231
     33  CA         1.8860    1.2180  -37.2960 C.3   158  ARG158      0.1694
     34  C          1.2440    0.7980  -38.6070 C.2   158  ARG158      0.2592
     35  O          0.2410    1.3650  -39.0350 O.2   158  ARG158     -0.2718
     36  CB         1.9050    0.0150  -36.3520 C.3   158  ARG158      0.0321
     37  CG         0.5190   -0.6140  -36.1510 C.3   158  ARG158      0.0489
     38  CD         0.3340   -1.1130  -34.7210 C.3   158  ARG158      0.2205
     39  NE        -0.9560   -1.7730  -34.5350 N.pl3 158  ARG158     -0.0865
     40  CZ        -2.1360   -1.1670  -34.6270 C.cat 158  ARG158      0.5346
     41  NH1       -2.2080    0.1340  -34.8970 N.pl3 158  ARG158      0.1354
     42  NH2       -3.2490   -1.8700  -34.4690 N.pl3 158  ARG158      0.1354
     43  N          1.8310   -0.2090  -39.2430 N.am  159  VAL159     -0.1966
     44  CA         1.2930   -0.7280  -40.4880 C.3   159  VAL159      0.1727
     45  C          0.2540   -1.7890  -40.1500 C.2   159  VAL159      0.2616
     46  O          0.4620   -2.5970  -39.2490 O.2   159  VAL159     -0.2715
     47  CB         2.3840   -1.4040  -41.3510 C.3   159  VAL159      0.0290
     48  CG1        1.7550   -1.9740  -42.6110 C.3   159  VAL159      0.0023
     49  CG2        3.4810   -0.4050  -41.6990 C.3   159  VAL159      0.0023
     50  N         -0.8690   -1.7730  -40.8550 N.am  160  LYS160     -0.1963
     51  CA        -1.9010   -2.7780  -40.6340 C.3   160  LYS160      0.1728
     52  C         -2.4180   -3.2820  -41.9720 C.2   160  LYS160      0.2616
     53  O         -2.4880   -2.5380  -42.9540 O.2   160  LYS160     -0.2715
     54  CB        -3.0640   -2.2210  -39.8020 C.3   160  LYS160      0.0311
     55  CG        -2.7360   -1.9760  -38.3250 C.3   160  LYS160      0.0038
     56  CD        -2.5200   -3.2760  -37.5370 C.3   160  LYS160      0.0206
     57  CE        -3.8100   -4.0790  -37.3620 C.3   160  LYS160      0.1093
     58  NZ        -3.5830   -5.2990  -36.5280 N.3   160  LYS160     -0.1314
     59  N         -2.7550   -4.5640  -42.0090 N.am  161  THR161     -0.1951
     60  CA        -3.2810   -5.1850  -43.2110 C.3   161  THR161      0.1897
     61  C         -4.7960   -5.1450  -43.1050 C.2   161  THR161      0.2313
     62  O         -5.3720   -5.5930  -42.1070 O.2   161  THR161     -0.2863
     63  CB        -2.7920   -6.6380  -43.3330 C.3   161  THR161      0.1794
     64  OG1       -1.3660   -6.6370  -43.4680 O.3   161  THR161     -0.2208
     65  CG2       -3.4110   -7.3170  -44.5500 C.3   161  THR161      0.0378
     66  N         -2.4720   -2.8670  -47.5560 N.3   184  MET184     -0.1245
     67  CA        -2.1520   -2.3300  -46.2420 C.3   184  MET184      0.1570
     68  C         -2.3500   -0.8270  -46.1240 C.2   184  MET184      0.2261
     69  O         -2.5820   -0.1320  -47.1150 O.2   184  MET184     -0.2867
     70  CB        -0.7060   -2.6710  -45.8950 C.3   184  MET184      0.0387
     71  CG        -0.3670   -4.1390  -46.0690 C.3   184  MET184      0.0595
     72  SD         1.3880   -4.4360  -45.8570 S.3   184  MET184     -0.1393
     73  CE         2.0260   -3.8360  -47.4230 C.3   184  MET184      0.0692
@<TRIPOS>BOND
     1    66    67    1
     2    73    72    1
     3    69    68    2
     4    67    68    1
     5    67    70    1
     6    71    70    1
     7    71    72    1
     8    65    63    1
     9    64    63    1
    10    63    60    1
    11    60    61    1
    12    60    59    1
    13    61    62    2
    14    53    52    2
    15    48    47    1
    16    59    52   am
    17    52    51    1
    18    49    47    1
    19    47    44    1
    20    50    51    1
    21    50    45   am
    22     1     2    1
    23    51    54    1
    24    44    45    1
    25    44    43    1
    26    45    46    2
    27    54    55    1
    28     2     3    1
    29     2     5    1
    30    43    34   am
    31    35    34    2
    32     3     4    2
    33     5     6    1
    34    34    33    1
    35    55    56    1
    36    56    57    1
    37    57    58    1
    38    33    32    1
    39    33    36    1
    40     6     7    1
    41     8     7    2
    42     7     9   am
    43    36    37    1
    44    37    38    1
    45    19    18    1
    46    41    40    1
    47    38    39    1
    48    40    39    2
    49    40    42    1
    50    10    11    1
    51    18    15    1
    52    11    12    1
    53    14    12   am
    54    14    15    1
    55    12    13    2
    56    15    16    1
    57    31    30    1
    58    16    20   am
    59    16    17    2
    60    30    27    1
    61    20    21    1
    62    28    29    2
    63    28    27    1
    64    27    26    1
    65    23    22    2
    66    21    24    1
    67    21    22    1
    68    24    25    1
