@<TRIPOS>MOLECULE
tmp/1ne7A03.pdb
 171 169 0 0 0
SMALL
GASTEIGER

@<TRIPOS>ATOM
      1  N        -10.6940   12.0190  -39.6500 N.3    40  PRO40      -0.2102
      2  CA       -10.9990   10.8170  -40.4270 C.3    40  PRO40       0.1504
      3  C        -11.3410   11.2030  -41.8710 C.2    40  PRO40       0.2576
      4  O        -11.4440   12.3870  -42.1930 O.2    40  PRO40      -0.2718
      5  CB       -12.2120   10.2650  -39.7010 C.3    40  PRO40       0.0282
      6  CG       -13.0060   11.5350  -39.4590 C.3    40  PRO40       0.0208
      7  CD       -11.9380   12.5950  -39.0990 C.3    40  PRO40       0.0893
      8  N        -11.5030   10.2080  -42.7380 N.am   41  THR41      -0.1939
      9  CA       -11.8900   10.4630  -44.1250 C.3    41  THR41       0.2028
     10  C        -13.1580    9.6600  -44.3630 C.2    41  THR41       0.2643
     11  O        -13.7420    9.1330  -43.4200 O.2    41  THR41      -0.2714
     12  CB       -10.8180   10.0070  -45.1470 C.3    41  THR41       0.1808
     13  OG1      -10.6390    8.5880  -45.0670 O.3    41  THR41      -0.2208
     14  CG2       -9.4920   10.7030  -44.8780 C.3    41  THR41       0.0379
     15  N        -13.5940    9.5770  -45.6120 N.am   42  GLY42      -0.1939
     16  CA       -14.7830    8.8060  -45.9130 C.3    42  GLY42       0.2014
     17  C        -16.0320    9.6190  -46.1540 C.2    42  GLY42       0.2640
     18  O        -16.0660   10.8300  -45.9260 O.2    42  GLY42      -0.2714
     19  N        -17.0760    8.9380  -46.6110 N.am   43  SER43      -0.1935
     20  CA       -18.3490    9.5790  -46.8970 C.3    43  SER43       0.2055
     21  C        -19.0130   10.1170  -45.6350 C.2    43  SER43       0.2644
     22  O        -19.7170   11.1240  -45.6800 O.2    43  SER43      -0.2714
     23  CB       -19.2910    8.5840  -47.5800 C.3    43  SER43       0.2130
     24  OG       -18.7070    8.0610  -48.7590 O.3    43  SER43      -0.2179
     25  N        -18.7840    9.4480  -44.5110 N.am   44  THR44      -0.1937
     26  CA       -19.3900    9.8650  -43.2500 C.3    44  THR44       0.2013
     27  C        -19.0330   11.2780  -42.8030 C.2    44  THR44       0.2484
     28  O        -19.9190   12.0790  -42.5410 O.2    44  THR44      -0.2729
     29  CB       -19.0590    8.8860  -42.1080 C.3    44  THR44       0.1807
     30  OG1      -19.6030    7.6010  -42.4200 O.3    44  THR44      -0.2208
     31  CG2      -19.6710    9.3700  -40.7930 C.3    44  THR44       0.0379
     32  N        -17.7350   11.6080  -42.7150 N.am   45  PRO45      -0.2726
     33  CA       -17.3970   12.9650  -42.2800 C.3    45  PRO45       0.1402
     34  C        -17.5080   14.0610  -43.3470 C.2    45  PRO45       0.2269
     35  O        -17.3270   15.2350  -43.0370 O.2    45  PRO45      -0.2865
     36  CB       -15.9670   12.8120  -41.7730 C.3    45  PRO45       0.0296
     37  CG       -15.4020   11.8050  -42.7120 C.3    45  PRO45       0.0237
     38  CD       -16.5230   10.7720  -42.8110 C.3    45  PRO45       0.0939
     39  N         -5.9990   10.0690  -39.2100 N.3    71  MET71      -0.1230
     40  CA        -5.8100    8.7540  -38.6180 C.3    71  MET71       0.1702
     41  C         -5.0840    7.7230  -39.4660 C.2    71  MET71       0.2592
     42  O         -4.4320    6.8370  -38.9200 O.2    71  MET71      -0.2718
     43  CB        -7.1570    8.1810  -38.1710 C.3    71  MET71       0.0401
     44  CG        -8.2310    8.1710  -39.2340 C.3    71  MET71       0.0596
     45  SD        -9.7420    7.3840  -38.6120 S.3    71  MET71      -0.1393
     46  CE        -9.9560    8.2240  -37.1100 C.3    71  MET71       0.0692
     47  N         -5.1640    7.8370  -40.7870 N.am   72  ASP72      -0.1974
     48  CA        -4.5170    6.8370  -41.6260 C.3    72  ASP72       0.1709
     49  C         -4.3200    7.2290  -43.0850 C.2    72  ASP72       0.2293
     50  O         -4.6580    8.3350  -43.5050 O.2    72  ASP72      -0.2864
     51  CB        -5.3260    5.5330  -41.5550 C.3    72  ASP72       0.1436
     52  CG        -6.8150    5.7640  -41.7240 C.2    72  ASP72       0.3671
     53  OD1       -7.1970    6.4740  -42.6710 O.co2  72  ASP72      -0.2456
     54  OD2       -7.6110    5.2330  -40.9180 O.co2  72  ASP72      -0.2456
     55  N         -5.8980    9.2020  -49.2110 N.3    85  TYR85      -0.1241
     56  CA        -6.4660   10.0430  -48.1770 C.3    85  TYR85       0.1605
     57  C         -5.8330   11.4280  -48.2130 C.2    85  TYR85       0.2264
     58  O         -6.3870   12.3840  -47.6750 O.2    85  TYR85      -0.2867
     59  CB        -6.3370    9.3440  -46.8190 C.3    85  TYR85       0.0534
     60  CG        -7.2580    8.1350  -46.7320 C.ar   85  TYR85      -0.0201
     61  CD1       -7.1850    7.2380  -45.6650 C.ar   85  TYR85      -0.0009
     62  CD2       -8.2100    7.8940  -47.7260 C.ar   85  TYR85      -0.0009
     63  CE1       -8.0390    6.1310  -45.5940 C.ar   85  TYR85       0.0417
     64  CE2       -9.0650    6.7950  -47.6630 C.ar   85  TYR85       0.0417
     65  CZ        -8.9740    5.9170  -46.5960 C.ar   85  TYR85       0.1957
     66  OH        -9.8280    4.8330  -46.5340 O.3    85  TYR85      -0.2866
     67  N        -14.5820    7.6640  -37.0020 N.3   137  GLY137     -0.1210
     68  CA       -15.7940    7.0090  -37.4430 C.3   137  GLY137      0.1956
     69  C        -15.6870    5.5660  -37.0120 C.2   137  GLY137      0.2612
     70  O        -14.7750    5.2140  -36.2660 O.2   137  GLY137     -0.2717
     71  N        -16.6080    4.7280  -37.4710 N.am  138  ILE138     -0.1965
     72  CA       -16.5700    3.3140  -37.1240 C.3   138  ILE138      0.1727
     73  C        -16.7770    2.4980  -38.3930 C.2   138  ILE138      0.2617
     74  O        -17.6130    2.8350  -39.2310 O.2   138  ILE138     -0.2715
     75  CB       -17.6620    2.9530  -36.0770 C.3   138  ILE138      0.0290
     76  CG1      -17.4810    1.5040  -35.6220 C.3   138  ILE138      0.0022
     77  CG2      -19.0580    3.1460  -36.6720 C.3   138  ILE138      0.0023
     78  CD1      -18.3570    1.1040  -34.4480 C.3   138  ILE138      0.0001
     79  N        -15.9830    1.4460  -38.5560 N.am  139  GLY139     -0.1941
     80  CA       -16.1310    0.6040  -39.7280 C.3   139  GLY139      0.1998
     81  C        -17.2030   -0.4480  -39.5000 C.2   139  GLY139      0.2480
     82  O        -17.6830   -0.6060  -38.3750 O.2   139  GLY139     -0.2729
     83  N        -17.6120   -1.1840  -40.5460 N.am  140  PRO140     -0.2726
     84  CA       -18.6390   -2.2240  -40.4110 C.3   140  PRO140      0.1402
     85  C        -18.1380   -3.3270  -39.4880 C.2   140  PRO140      0.2269
     86  O        -18.9160   -4.1270  -38.9670 O.2   140  PRO140     -0.2865
     87  CB       -18.8120   -2.7230  -41.8430 C.3   140  PRO140      0.0296
     88  CG       -18.4550   -1.5310  -42.6650 C.3   140  PRO140      0.0237
     89  CD       -17.2480   -0.9910  -41.9590 C.3   140  PRO140      0.0939
     90  N        -14.0700   -1.0830  -36.5160 N.3   143  HIS143     -0.1241
     91  CA       -12.7440   -0.4950  -36.3720 C.3   143  HIS143      0.1621
     92  C        -12.6650    1.0130  -36.1970 C.2   143  HIS143      0.2264
     93  O        -13.5410    1.7540  -36.6480 O.2   143  HIS143     -0.2867
     94  CB       -11.8300   -0.9230  -37.5470 C.3   143  HIS143      0.0745
     95  CG       -12.1060   -0.2270  -38.8510 C.ar  143  HIS143      0.0817
     96  ND1      -11.6460   -0.7140  -40.0560 N.ar  143  HIS143     -0.2268
     97  CD2      -12.7540    0.9280  -39.1380 C.ar  143  HIS143      0.1154
     98  CE1      -12.0000    0.1080  -41.0280 C.ar  143  HIS143      0.1986
     99  NE2      -12.6730    1.1130  -40.4980 N.ar  143  HIS143     -0.2212
    100  N        -10.0610    3.8940  -37.1590 N.3   145  ALA145     -0.1231
    101  CA        -8.9420    4.0200  -38.1020 C.3   145  ALA145      0.1694
    102  C         -8.8270    2.6630  -38.8040 C.2   145  ALA145      0.2592
    103  O         -9.8370    2.1090  -39.2460 O.2   145  ALA145     -0.2718
    104  CB        -7.6540    4.3600  -37.3590 C.3   145  ALA145      0.0304
    105  N         -7.6190    2.1190  -38.9280 N.am  146  PHE146     -0.1976
    106  CA        -7.4960    0.8040  -39.5420 C.3   146  PHE146      0.1639
    107  C         -7.0600   -0.2330  -38.5150 C.2   146  PHE146      0.2290
    108  O         -6.2950   -1.1510  -38.8100 O.2   146  PHE146     -0.2864
    109  CB        -6.5420    0.8210  -40.7380 C.3   146  PHE146      0.0560
    110  CG        -7.1740    1.3400  -42.0010 C.ar  146  PHE146     -0.0200
    111  CD1       -8.3530    0.7800  -42.4850 C.ar  146  PHE146     -0.0042
    112  CD2       -6.5930    2.3890  -42.7040 C.ar  146  PHE146     -0.0042
    113  CE1       -8.9480    1.2590  -43.6560 C.ar  146  PHE146     -0.0003
    114  CE2       -7.1780    2.8740  -43.8730 C.ar  146  PHE146     -0.0003
    115  CZ        -8.3540    2.3100  -44.3490 C.ar  146  PHE146     -0.0000
    116  N        -13.3580   -4.3960  -44.5480 N.3   166  THR166     -0.1218
    117  CA       -12.8190   -3.1270  -45.0180 C.3   166  THR166      0.1862
    118  C        -12.5520   -3.1610  -46.5180 C.2   166  THR166      0.2287
    119  O        -12.8820   -2.2200  -47.2390 O.2   166  THR166     -0.2866
    120  CB       -11.5150   -2.7840  -44.2820 C.3   166  THR166      0.1770
    121  OG1      -11.7520   -2.8050  -42.8680 O.3   166  THR166     -0.2211
    122  CG2      -11.0200   -1.4000  -44.6890 C.3   166  THR166      0.0375
    123  N        -14.6010   -0.9550  -49.1660 N.3   170  ASN170     -0.1240
    124  CA       -13.8230    0.0400  -49.8930 C.3   170  ASN170      0.1653
    125  C        -13.5880   -0.3440  -51.3480 C.2   170  ASN170      0.2266
    126  O        -12.9890    0.4240  -52.1010 O.2   170  ASN170     -0.2867
    127  CB       -12.4770    0.2730  -49.2170 C.3   170  ASN170      0.1155
    128  CG       -12.6180    0.9190  -47.8470 C.2   170  ASN170      0.2627
    129  OD1      -13.3390    0.4250  -46.9840 O.2   170  ASN170     -0.2716
    130  ND2      -11.9300    2.0350  -47.6450 N.am  170  ASN170     -0.0877
    131  N        -15.6020   -0.2910  -53.5380 N.3   172  ARG172     -0.1231
    132  CA       -16.3180    0.6000  -54.4750 C.3   172  ARG172      0.1694
    133  C        -15.4040    1.7570  -54.8530 C.2   172  ARG172      0.2592
    134  O        -15.4900    2.3200  -55.9210 O.2   172  ARG172     -0.2718
    135  CB       -17.5600    1.1770  -53.8410 C.3   172  ARG172      0.0321
    136  CG       -17.3110    2.0270  -52.5600 C.3   172  ARG172      0.0489
    137  CD       -18.5500    2.7420  -52.0650 C.3   172  ARG172      0.2205
    138  NE       -18.3480    3.5540  -50.8570 N.pl3 172  ARG172     -0.0865
    139  CZ       -19.2390    4.4620  -50.4940 C.cat 172  ARG172      0.5346
    140  NH1      -20.2850    4.5890  -51.2790 N.pl3 172  ARG172      0.1354
    141  NH2      -19.1260    5.2050  -49.3930 N.pl3 172  ARG172      0.1354
    142  N        -14.4840    2.1160  -53.9930 N.am  173  PHE173     -0.1976
    143  CA       -13.6140    3.2140  -54.4310 C.3   173  PHE173      0.1639
    144  C        -12.4780    2.9310  -55.4060 C.2   173  PHE173      0.2290
    145  O        -11.7220    3.8200  -55.8310 O.2   173  PHE173     -0.2864
    146  CB       -13.0940    4.0050  -53.2520 C.3   173  PHE173      0.0560
    147  CG       -14.1530    4.5230  -52.3580 C.ar  173  PHE173     -0.0200
    148  CD1      -15.0570    5.5140  -52.7470 C.ar  173  PHE173     -0.0042
    149  CD2      -14.1370    4.1100  -51.0530 C.ar  173  PHE173     -0.0042
    150  CE1      -15.9290    6.0760  -51.8050 C.ar  173  PHE173     -0.0003
    151  CE2      -14.9740    4.6400  -50.1240 C.ar  173  PHE173     -0.0003
    152  CZ       -15.8640    5.6300  -50.4880 C.ar  173  PHE173     -0.0000
    153  N        -26.1710    0.6250  -42.0720 N.3   207  HIS207     -0.1226
    154  CA       -25.0940   -0.3240  -42.3090 C.3   207  HIS207      0.1752
    155  C        -24.0310   -0.2860  -41.2160 C.2   207  HIS207      0.2595
    156  O        -23.1450   -1.1360  -41.1800 O.2   207  HIS207     -0.2718
    157  CB       -24.4470   -0.0810  -43.6790 C.3   207  HIS207      0.0759
    158  CG       -23.8420    1.2780  -43.8350 C.ar  207  HIS207      0.0818
    159  ND1      -24.5960    2.4310  -43.8620 N.ar  207  HIS207     -0.2268
    160  CD2      -22.5530    1.6670  -43.9780 C.ar  207  HIS207      0.1154
    161  CE1      -23.7980    3.4730  -44.0160 C.ar  207  HIS207      0.1986
    162  NE2      -22.5530    3.0360  -44.0890 N.ar  207  HIS207     -0.2212
    163  N        -24.1210    0.6990  -40.3290 N.am  208  LYS208     -0.1980
    164  CA       -23.1690    0.8210  -39.2220 C.3   208  LYS208      0.1596
    165  C        -23.8340    0.4450  -37.8970 C.2   208  LYS208      0.2287
    166  O        -23.1760    0.3910  -36.8560 O.2   208  LYS208     -0.2864
    167  CB       -22.6500    2.2590  -39.1140 C.3   208  LYS208      0.0298
    168  CG       -21.8460    2.7550  -40.3080 C.3   208  LYS208      0.0038
    169  CD       -20.5780    1.9400  -40.5140 C.3   208  LYS208      0.0206
    170  CE       -19.6980    2.5520  -41.6080 C.3   208  LYS208      0.1093
    171  NZ       -19.1780    3.8870  -41.2030 N.3   208  LYS208     -0.1314
@<TRIPOS>BOND
     1   134   133    2
     2   145   144    2
     3   144   143    1
     4   133   132    1
     5   133   142   am
     6   132   135    1
     7   132   131    1
     8   143   142    1
     9   143   146    1
    10   135   136    1
    11   146   147    1
    12   148   147   ar
    13   148   150   ar
    14   136   137    1
    15   147   149   ar
    16   126   125    2
    17   137   138    1
    18   150   152   ar
    19   125   124    1
    20   140   139    1
    21   149   151   ar
    22   138   139    2
    23   139   141    1
    24   152   151   ar
    25   124   127    1
    26   124   123    1
    27   127   128    1
    28    55    56    1
    29    24    23    1
    30    57    56    1
    31    57    58    2
    32    56    59    1
    33   128   130   am
    34   128   129    2
    35    62    64   ar
    36    62    60   ar
    37    64    65   ar
    38    23    20    1
    39   119   118    2
    40    20    19    1
    41    20    21    1
    42    59    60    1
    43    60    61   ar
    44    19    17   am
    45    65    66    1
    46    65    63   ar
    47   118   117    1
    48    17    18    2
    49    17    16    1
    50    16    15    1
    51    22    21    2
    52    61    63   ar
    53    21    25   am
    54    15    10   am
    55    12    13    1
    56    12    14    1
    57    12     9    1
    58   117   116    1
    59   117   120    1
    60   122   120    1
    61    25    26    1
    62    10     9    1
    63    10    11    2
    64   115   114   ar
    65   115   113   ar
    66   120   121    1
    67     9     8    1
    68   162   161   ar
    69   162   160   ar
    70   161   159   ar
    71   160   158   ar
    72   114   112   ar
    73   159   158   ar
    74   158   157    1
    75   157   154    1
    76   113   111   ar
    77    50    49    2
    78    34    35    2
    79    34    33    1
    80    26    27    1
    81    26    29    1
    82    49    48    1
    83    38    32    1
    84    38    37    1
    85    27    32   am
    86    27    28    2
    87     8     3   am
    88    32    33    1
    89    37    36    1
    90   112   110   ar
    91    53    52   ar
    92    88    89    1
    93    88    87    1
    94   111   110   ar
    95    30    29    1
    96   154   153    1
    97   154   155    1
    98    33    36    1
    99     4     3    2
   100    29    31    1
   101   110   109    1
   102    89    83    1
   103     3     2    1
   104    87    84    1
   105    52    51    1
   106    52    54   ar
   107    48    51    1
   108    48    47    1
   109   170   171    1
   110   170   169    1
   111   155   156    2
   112   155   163   am
   113    98    99   ar
   114    98    96   ar
   115    47    41   am
   116   109   106    1
   117    83    84    1
   118    83    81   am
   119   169   168    1
   120    99    97   ar
   121     2     5    1
   122     2     1    1
   123    84    85    1
   124   163   164    1
   125   168   167    1
   126    96    95   ar
   127    80    81    1
   128    80    79    1
   129     5     6    1
   130     1     7    1
   131   106   105    1
   132   106   107    1
   133    81    82    2
   134    85    86    2
   135    41    42    2
   136    41    40    1
   137     6     7    1
   138   103   102    2
   139    44    45    1
   140    44    43    1
   141    74    73    2
   142   164   167    1
   143   164   165    1
   144    39    40    1
   145    97    95   ar
   146   105   102   am
   147    95    94    1
   148   108   107    2
   149   102   101    1
   150    40    43    1
   151    45    46    1
   152    79    73   am
   153    73    72    1
   154   101   104    1
   155   101   100    1
   156   165   166    2
   157    94    91    1
   158    71    72    1
   159    71    69   am
   160    68    69    1
   161    68    67    1
   162    72    75    1
   163    69    70    2
   164    77    75    1
   165    93    92    2
   166    90    91    1
   167    91    92    1
   168    75    76    1
   169    76    78    1
