@<TRIPOS>MOLECULE
tmp/1nekC03.pdb
 113 106 0 0 0
SMALL
GASTEIGER

@<TRIPOS>ATOM
      1  N         81.9590   84.2790  107.1950 N.3    22  ILE22      -0.1245
      2  CA        81.6640   84.5130  105.7850 C.3    22  ILE22       0.1561
      3  C         80.8090   85.7710  105.6380 C.2    22  ILE22       0.2260
      4  O         80.8480   86.4400  104.6020 O.2    22  ILE22      -0.2867
      5  CB        80.9140   83.3170  105.1540 C.3    22  ILE22       0.0252
      6  CG1       80.9140   83.4490  103.6360 C.3    22  ILE22       0.0019
      7  CG2       79.4720   83.2840  105.6290 C.3    22  ILE22       0.0019
      8  CD1       80.0430   82.4200  102.9430 C.3    22  ILE22       0.0001
      9  N         82.9220   88.7080  105.2530 N.3    25  ILE25      -0.1245
     10  CA        83.5410   88.7830  103.9320 C.3    25  ILE25       0.1561
     11  C         82.5460   89.3450  102.9390 C.2    25  ILE25       0.2260
     12  O         82.9030   90.1230  102.0460 O.2    25  ILE25      -0.2867
     13  CB        83.9760   87.3850  103.4440 C.3    25  ILE25       0.0252
     14  CG1       84.8960   86.7560  104.4770 C.3    25  ILE25       0.0019
     15  CG2       84.6720   87.4860  102.1020 C.3    25  ILE25       0.0019
     16  CD1       86.0030   87.6860  104.9290 C.3    25  ILE25       0.0001
     17  N         83.1790   93.1010  100.9170 N.3    29  LEU29      -0.1245
     18  CA        83.2570   93.0310   99.4620 C.3    29  LEU29       0.1561
     19  C         82.1820   93.9450   98.8800 C.2    29  LEU29       0.2260
     20  O         82.3600   94.5350   97.8170 O.2    29  LEU29      -0.2867
     21  CB        83.0520   91.5850   98.9640 C.3    29  LEU29       0.0270
     22  CG        84.2640   90.6370   98.9370 C.3    29  LEU29       0.0019
     23  CD1       83.9210   89.3130   98.2670 C.3    29  LEU29       0.0001
     24  CD2       85.3850   91.3170   98.1860 C.3    29  LEU29       0.0001
     25  N         84.4070   93.3890   82.0850 N.3    75  TRP75      -0.1241
     26  CA        83.8630   92.2190   82.7610 C.3    75  TRP75       0.1605
     27  C         83.9270   92.3230   84.2800 C.2    75  TRP75       0.2264
     28  O         83.0220   91.8520   84.9790 O.2    75  TRP75      -0.2867
     29  CB        84.6020   90.9540   82.3090 C.3    75  TRP75       0.0550
     30  CG        84.1470   89.7550   83.0780 C.ar   75  TRP75       0.0003
     31  CD1       82.9500   89.1070   82.9530 C.ar   75  TRP75       0.0946
     32  CD2       84.8190   89.1470   84.1860 C.ar   75  TRP75       0.0152
     33  NE1       82.8310   88.1400   83.9260 N.ar   75  TRP75      -0.2442
     34  CE2       83.9640   88.1440   84.6940 C.ar   75  TRP75       0.0810
     35  CE3       86.0590   89.3560   84.8040 C.ar   75  TRP75       0.0012
     36  CZ2       84.3070   87.3470   85.7950 C.ar   75  TRP75       0.0191
     37  CZ3       86.4020   88.5660   85.9060 C.ar   75  TRP75       0.0001
     38  CH2       85.5280   87.5750   86.3860 C.ar   75  TRP75       0.0015
     39  N         80.7330   92.5370   86.9700 N.3    79  THR79      -0.1218
     40  CA        80.7230   91.5560   88.0490 C.3    79  THR79       0.1862
     41  C         80.6660   92.2890   89.3650 C.2    79  THR79       0.2287
     42  O         79.8460   91.9620   90.2180 O.2    79  THR79      -0.2866
     43  CB        81.9870   90.6310   88.0120 C.3    79  THR79       0.1770
     44  OG1       81.9350   89.8080   86.8420 O.3    79  THR79      -0.2211
     45  CG2       82.0580   89.7180   89.2430 C.3    79  THR79       0.0375
     46  N         77.6270   92.0220   91.9410 N.3    83  TYR83      -0.1241
     47  CA        77.8530   91.6360   93.3200 C.3    83  TYR83       0.1605
     48  C         77.1370   92.6410   94.1910 C.2    83  TYR83       0.2264
     49  O         76.2180   92.3060   94.9340 O.2    83  TYR83      -0.2867
     50  CB        79.3440   91.6490   93.6430 C.3    83  TYR83       0.0534
     51  CG        79.6200   91.3080   95.0820 C.ar   83  TYR83      -0.0201
     52  CD1       79.6430   89.9860   95.5120 C.ar   83  TYR83      -0.0009
     53  CD2       79.8010   92.2990   96.0300 C.ar   83  TYR83      -0.0009
     54  CE1       79.8370   89.6650   96.8480 C.ar   83  TYR83       0.0417
     55  CE2       79.9940   91.9940   97.3680 C.ar   83  TYR83       0.0417
     56  CZ        80.0120   90.6710   97.7710 C.ar   83  TYR83       0.1957
     57  OH        80.2060   90.3510   99.0980 O.3    83  TYR83      -0.2866
     58  N         74.3960   83.5360  107.2980 N.3   107  LYS107     -0.1245
     59  CA        75.4020   82.8170  106.5100 C.3   107  LYS107      0.1561
     60  C         74.7620   82.2310  105.2770 C.2   107  LYS107      0.2260
     61  O         75.3730   82.1960  104.2100 O.2   107  LYS107     -0.2867
     62  CB        76.0310   81.6790  107.2980 C.3   107  LYS107      0.0271
     63  CG        76.8730   82.0960  108.4780 C.3   107  LYS107      0.0035
     64  CD        77.6100   80.9050  109.0460 C.3   107  LYS107      0.0206
     65  CE        78.4990   80.2830  107.9760 C.3   107  LYS107      0.1093
     66  NZ        79.2250   79.0560  108.4270 N.3   107  LYS107     -0.1314
     67  N         75.7520   83.1180  101.3310 N.3   111  LYS111     -0.1245
     68  CA        76.0940   82.0570  100.3720 C.3   111  LYS111      0.1561
     69  C         75.2360   82.0840   99.1200 C.2   111  LYS111      0.2260
     70  O         75.7530   81.9880   98.0080 O.2   111  LYS111     -0.2867
     71  CB        75.9640   80.6860  101.0280 C.3   111  LYS111      0.0271
     72  CG        77.0260   80.3960  102.0610 C.3   111  LYS111      0.0035
     73  CD        76.5770   79.2820  102.9870 C.3   111  LYS111      0.0206
     74  CE        77.4980   79.1670  104.1930 C.3   111  LYS111      0.1093
     75  NZ        76.9390   78.2230  105.1990 N.3   111  LYS111     -0.1314
     76  N         76.5120   85.0720   96.8130 N.3   114  PHE114     -0.1227
     77  CA        77.7190   84.8350   96.0120 C.3   114  PHE114      0.1736
     78  C         77.3780   83.9410   94.8320 C.2   114  PHE114      0.2595
     79  O         77.8910   84.1140   93.7210 O.2   114  PHE114     -0.2718
     80  CB        78.7900   84.1300   96.8470 C.3   114  PHE114      0.0547
     81  CG        79.2210   84.8930   98.0680 C.ar  114  PHE114     -0.0202
     82  CD1       79.3890   86.2700   98.0270 C.ar  114  PHE114     -0.0042
     83  CD2       79.4460   84.2280   99.2680 C.ar  114  PHE114     -0.0042
     84  CE1       79.7780   86.9740   99.1640 C.ar  114  PHE114     -0.0003
     85  CE2       79.8330   84.9300  100.4110 C.ar  114  PHE114     -0.0003
     86  CZ        80.0000   86.3020  100.3540 C.ar  114  PHE114     -0.0000
     87  N         76.5150   82.9620   95.0940 N.am  115  VAL115     -0.1980
     88  CA        76.0870   82.0180   94.0780 C.3   115  VAL115      0.1595
     89  C         75.4030   82.7430   92.9470 C.2   115  VAL115      0.2287
     90  O         75.7670   82.5550   91.7820 O.2   115  VAL115     -0.2864
     91  CB        75.1460   80.9730   94.6780 C.3   115  VAL115      0.0276
     92  CG1       74.3800   80.2530   93.5870 C.3   115  VAL115      0.0022
     93  CG2       75.9620   79.9850   95.4900 C.3   115  VAL115      0.0022
     94  N         75.6290   85.8500   92.3160 N.3   117  THR117     -0.1203
     95  CA        76.6220   86.7360   91.7190 C.3   117  THR117      0.1994
     96  C         77.4290   86.0070   90.6530 C.2   117  THR117      0.2617
     97  O         77.4900   86.4700   89.5100 O.2   117  THR117     -0.2717
     98  CB        77.6080   87.3050   92.7640 C.3   117  THR117      0.1784
     99  OG1       76.8910   88.0200   93.7730 O.3   117  THR117     -0.2211
    100  CG2       78.5740   88.2470   92.1000 C.3   117  THR117      0.0376
    101  N         78.0430   84.8800   91.0070 N.am  118  VAL118     -0.1979
    102  CA        78.8520   84.1210   90.0310 C.3   118  VAL118      0.1595
    103  C         78.0600   83.8380   88.7600 C.2   118  VAL118      0.2287
    104  O         78.5620   84.0170   87.6440 O.2   118  VAL118     -0.2864
    105  CB        79.3420   82.7850   90.6100 C.3   118  VAL118      0.0276
    106  CG1       80.1110   82.0350   89.5600 C.3   118  VAL118      0.0022
    107  CG2       80.2220   83.0350   91.8240 C.3   118  VAL118      0.0022
    108  N         77.7840   86.9890   86.8910 N.3   121  SER121     -0.1217
    109  CA        79.1110   87.2870   86.3820 C.3   121  SER121      0.1889
    110  C         79.3480   86.5400   85.0780 C.2   121  SER121      0.2288
    111  O         79.9140   87.0840   84.1290 O.2   121  SER121     -0.2866
    112  CB        80.1680   86.8600   87.3850 C.3   121  SER121      0.2089
    113  OG        81.4410   86.9130   86.7780 O.3   121  SER121     -0.2183
@<TRIPOS>BOND
     1    25    26    1
     2    29    26    1
     3    29    30    1
     4    26    27    1
     5    31    30   ar
     6    31    33   ar
     7    30    32   ar
     8    33    34   ar
     9   111   110    2
    10    32    34   ar
    11    32    35   ar
    12    27    28    2
    13    34    36   ar
    14    35    37   ar
    15   110   109    1
    16    36    38   ar
    17    37    38   ar
    18   109   108    1
    19   109   112    1
    20   113   112    1
    21    44    43    1
    22    39    40    1
    23   104   103    2
    24    43    40    1
    25    43    45    1
    26    40    41    1
    27   103   102    1
    28    41    42    2
    29    97    96    2
    30   106   105    1
    31   102   105    1
    32   102   101    1
    33   105   107    1
    34    96   101   am
    35    96    95    1
    36    95    94    1
    37    95    98    1
    38    90    89    2
    39    46    47    1
    40   100    98    1
    41    98    99    1
    42    89    88    1
    43    47    50    1
    44    47    48    1
    45    92    91    1
    46    50    51    1
    47    79    78    2
    48    88    91    1
    49    88    87    1
    50    48    49    2
    51    91    93    1
    52    78    87   am
    53    78    77    1
    54    51    52   ar
    55    51    53   ar
    56    52    54   ar
    57    77    76    1
    58    77    80    1
    59    53    55   ar
    60    80    81    1
    61    54    56   ar
    62    55    56   ar
    63    56    57    1
    64    20    19    2
    65    70    69    2
    66    82    81   ar
    67    82    84   ar
    68    81    83   ar
    69    24    22    1
    70    23    22    1
    71    19    18    1
    72    22    21    1
    73    21    18    1
    74    69    68    1
    75    84    86   ar
    76    83    85   ar
    77    18    17    1
    78    86    85   ar
    79    68    71    1
    80    68    67    1
    81    71    72    1
    82    12    11    2
    83    72    73    1
    84    15    13    1
    85    11    10    1
    86     8     6    1
    87    73    74    1
    88    13    10    1
    89    13    14    1
    90     6     5    1
    91    10     9    1
    92    74    75    1
    93    61    60    2
    94    14    16    1
    95     4     3    2
    96     5     7    1
    97     5     2    1
    98    60    59    1
    99     3     2    1
   100     2     1    1
   101    59    58    1
   102    59    62    1
   103    62    63    1
   104    65    66    1
   105    65    64    1
   106    63    64    1
