@<TRIPOS>MOLECULE
tmp/1nesA00.pdb
 112 109 0 0 0
SMALL
GASTEIGER

@<TRIPOS>ATOM
      1  N         -4.5110   17.7320   41.4790 N.3    45  HIS45      -0.1241
      2  CA        -5.0020   17.3540   40.1530 C.3    45  HIS45       0.1621
      3  C         -4.2680   18.0380   39.0140 C.2    45  HIS45       0.2264
      4  O         -4.4820   17.6810   37.8600 O.2    45  HIS45      -0.2867
      5  CB        -6.4870   17.6190   40.0090 C.3    45  HIS45       0.0745
      6  CG        -6.9020   19.0610   39.7210 C.ar   45  HIS45       0.0817
      7  ND1       -7.4210   19.8600   40.6850 N.ar   45  HIS45      -0.2268
      8  CD2       -7.0950   19.7030   38.5300 C.ar   45  HIS45       0.1154
      9  CE1       -7.7960   21.0240   40.0850 C.ar   45  HIS45       0.1986
     10  NE2       -7.6350   20.9160   38.7560 N.ar   45  HIS45      -0.2212
     11  N        -12.1240   14.0970   43.3550 N.3    88  VAL88      -0.1231
     12  CA       -11.7260   15.4870   43.7800 C.3    88  VAL88       0.1692
     13  C        -12.5050   15.9800   45.0090 C.2    88  VAL88       0.2591
     14  O        -12.0170   16.7520   45.8580 O.2    88  VAL88      -0.2718
     15  CB       -11.6890   16.5340   42.6370 C.3    88  VAL88       0.0266
     16  CG1      -13.0790   17.0150   42.1930 C.3    88  VAL88       0.0020
     17  CG2      -10.8810   17.7970   43.0130 C.3    88  VAL88       0.0020
     18  N        -13.7370   15.4370   45.1630 N.am   89  ALA89      -0.1980
     19  CA       -14.6310   15.8370   46.2440 C.3    89  ALA89       0.1597
     20  C        -14.2660   15.2350   47.5600 C.2    89  ALA89       0.2287
     21  O        -14.8080   15.6200   48.5550 O.2    89  ALA89      -0.2864
     22  CB       -16.1050   15.5050   45.9170 C.3    89  ALA89       0.0319
     23  N        -23.6370   23.0270   47.6650 N.3   164  TRP164     -0.1241
     24  CA       -22.8880   21.8760   47.2250 C.3   164  TRP164      0.1605
     25  C        -23.2960   20.5530   47.8170 C.2   164  TRP164      0.2264
     26  O        -22.7350   19.5260   47.4430 O.2   164  TRP164     -0.2867
     27  CB       -21.3940   22.1190   47.4100 C.3   164  TRP164      0.0550
     28  CG       -20.8140   22.8790   46.2340 C.ar  164  TRP164      0.0003
     29  CD1      -20.4190   24.1720   46.1630 C.ar  164  TRP164      0.0946
     30  CD2      -20.5050   22.3240   44.9310 C.ar  164  TRP164      0.0152
     31  NE1      -19.8790   24.4810   44.9670 N.ar  164  TRP164     -0.2442
     32  CE2      -19.8590   23.3520   44.2060 C.ar  164  TRP164      0.0810
     33  CE3      -20.6540   21.0450   44.4290 C.ar  164  TRP164      0.0012
     34  CZ2      -19.2630   23.1510   42.9790 C.ar  164  TRP164      0.0191
     35  CZ3      -20.0680   20.8560   43.2020 C.ar  164  TRP164      0.0001
     36  CH2      -19.3810   21.8560   42.5140 C.ar  164  TRP164      0.0015
     37  N        -20.7650   17.1540   48.7820 N.3   167  THR167     -0.1218
     38  CA       -19.6370   17.2620   47.9150 C.3   167  THR167      0.1862
     39  C        -18.5660   18.1120   48.5550 C.2   167  THR167      0.2287
     40  O        -17.3970   17.8300   48.3810 O.2   167  THR167     -0.2866
     41  CB       -20.1450   17.8310   46.5870 C.3   167  THR167      0.1770
     42  OG1      -21.1210   16.9190   46.0080 O.3   167  THR167     -0.2211
     43  CG2      -19.1010   18.1490   45.5230 C.3   167  THR167      0.0375
     44  N        -12.2190   29.1410   36.9980 N.3   184  CYS184     -0.1221
     45  CA       -12.5530   28.2710   35.8410 C.3   184  CYS184      0.1808
     46  C        -11.3190   27.4620   35.4840 C.2   184  CYS184      0.2601
     47  O        -10.3680   27.5940   36.2270 O.2   184  CYS184     -0.2717
     48  CB       -13.1290   29.1050   34.6180 C.3   184  CYS184      0.0970
     49  SG       -14.1360   28.2990   33.4060 S.3   184  CYS184     -0.0800
     50  N        -11.3370   26.4560   34.6310 N.am  185  GLN185     -0.1979
     51  CA       -10.1880   25.6170   34.2930 C.3   185  GLN185      0.1601
     52  C         -8.9990   26.4570   33.8340 C.2   185  GLN185      0.2287
     53  O         -9.2070   27.5390   33.2970 O.2   185  GLN185     -0.2864
     54  CB       -10.5970   24.6450   33.1470 C.3   185  GLN185      0.0394
     55  CG       -11.5210   23.5420   33.6610 C.3   185  GLN185      0.0908
     56  CD       -12.9850   23.9560   33.5990 C.2   185  GLN185      0.2608
     57  OE1      -13.3890   24.4850   32.5830 O.2   185  GLN185     -0.2717
     58  NE2      -13.7960   23.7430   34.6360 N.am  185  GLN185     -0.0878
     59  N         -7.0430   26.5520   38.4670 N.3   188  SER188     -0.1217
     60  CA        -6.7630   25.5120   39.4860 C.3   188  SER188      0.1889
     61  C         -5.3540   25.4800   40.0580 C.2   188  SER188      0.2288
     62  O         -4.4480   25.8500   39.3340 O.2   188  SER188     -0.2866
     63  CB        -6.9580   24.1250   38.9380 C.3   188  SER188      0.2089
     64  OG        -8.2760   23.8650   38.4620 O.3   188  SER188     -0.2183
     65  N         -7.2970   26.8610   44.3890 N.3   206  THR206     -0.1203
     66  CA        -8.4840   26.5730   43.5600 C.3   206  THR206      0.1994
     67  C         -8.5530   25.1100   43.1140 C.2   206  THR206      0.2619
     68  O         -7.5410   24.4350   42.7780 O.2   206  THR206     -0.2717
     69  CB        -8.5130   27.5440   42.3650 C.3   206  THR206      0.1784
     70  OG1       -8.2060   28.9010   42.8100 O.3   206  THR206     -0.2211
     71  CG2       -9.6630   27.4580   41.3620 C.3   206  THR206      0.0376
     72  N         -9.6490   24.5040   43.4990 N.am  207  SER207     -0.1937
     73  CA        -9.8080   23.1390   43.2960 C.3   207  SER207      0.2055
     74  C        -10.8130   22.7810   42.2130 C.2   207  SER207      0.2643
     75  O        -10.4370   22.0750   41.2720 O.2   207  SER207     -0.2714
     76  CB       -10.1760   22.4190   44.5910 C.3   207  SER207      0.2130
     77  OG       -10.1640   21.0340   44.2670 O.3   207  SER207     -0.2179
     78  N        -12.0920   23.0380   42.4340 N.am  208  PHE208     -0.1959
     79  CA       -13.1290   22.5620   41.4830 C.3   208  PHE208      0.1771
     80  C        -14.2900   23.5350   41.4140 C.2   208  PHE208      0.2619
     81  O        -14.4070   24.4140   42.2940 O.2   208  PHE208     -0.2715
     82  CB       -13.6740   21.1180   41.7500 C.3   208  PHE208      0.0574
     83  CG       -14.3030   20.9260   43.0930 C.ar  208  PHE208     -0.0200
     84  CD1      -13.5330   20.5940   44.1420 C.ar  208  PHE208     -0.0042
     85  CD2      -15.6660   20.9390   43.2260 C.ar  208  PHE208     -0.0042
     86  CE1      -14.1080   20.2170   45.3160 C.ar  208  PHE208     -0.0003
     87  CE2      -16.2290   20.5670   44.4230 C.ar  208  PHE208     -0.0003
     88  CZ       -15.4630   20.1890   45.4590 C.ar  208  PHE208     -0.0000
     89  N        -15.0200   23.4240   40.3100 N.am  209  VAL209     -0.1963
     90  CA       -16.2580   24.1020   40.0000 C.3   209  VAL209      0.1727
     91  C        -17.2470   23.0380   39.5270 C.2   209  VAL209      0.2617
     92  O        -16.9300   21.8400   39.4430 O.2   209  VAL209     -0.2715
     93  CB       -16.0710   25.1840   38.9220 C.3   209  VAL209      0.0290
     94  CG1      -15.2390   26.4420   39.3060 C.3   209  VAL209      0.0023
     95  CG2      -15.6800   24.6070   37.6030 C.3   209  VAL209      0.0023
     96  N        -18.4330   23.5150   39.1460 N.am  210  SER210     -0.1936
     97  CA       -19.5630   22.7100   38.6820 C.3   210  SER210      0.2055
     98  C        -19.2660   22.0640   37.3400 C.2   210  SER210      0.2642
     99  O        -18.6990   22.6830   36.4630 O.2   210  SER210     -0.2714
    100  CB       -20.8010   23.5930   38.4960 C.3   210  SER210      0.2130
    101  OG       -21.8400   22.6890   38.3680 O.3   210  SER210     -0.2179
    102  N        -19.7750   20.8440   37.1310 N.am  211  ARG211     -0.1977
    103  CA       -19.7390   20.3270   35.7750 C.3   211  ARG211      0.1597
    104  C        -20.7170   21.0920   34.8910 C.2   211  ARG211      0.2287
    105  O        -20.6440   20.9960   33.6550 O.2   211  ARG211     -0.2864
    106  CB       -20.1680   18.8700   35.8740 C.3   211  ARG211      0.0334
    107  CG       -19.0130   17.9490   36.2430 C.3   211  ARG211      0.0492
    108  CD       -19.4240   16.4990   35.9810 C.3   211  ARG211      0.2205
    109  NE       -20.3950   16.1030   36.9630 N.pl3 211  ARG211     -0.0865
    110  CZ       -21.6250   15.6630   36.6860 C.cat 211  ARG211      0.5346
    111  NH1      -22.0780   15.6560   35.4240 N.pl3 211  ARG211      0.1354
    112  NH2      -22.3740   15.2960   37.7250 N.pl3 211  ARG211      0.1354
@<TRIPOS>BOND
     1    57    56    2
     2    54    55    1
     3    54    51    1
     4    53    52    2
     5    49    48    1
     6    56    55    1
     7    56    58   am
     8   105   104    2
     9    52    51    1
    10    51    50    1
    11    48    45    1
    12    50    46   am
    13   104   103    1
    14   111   110    1
    15    46    45    1
    16    46    47    2
    17   103   106    1
    18   103   102    1
    19    45    44    1
    20   106   107    1
    21   108   107    1
    22   108   109    1
    23    99    98    2
    24   110   109    2
    25   110   112    1
    26   102    98   am
    27    98    97    1
    28    95    93    1
    29     4     3    2
    30   101   100    1
    31    64    63    1
    32    59    60    1
    33   100    97    1
    34     8    10   ar
    35     8     6   ar
    36    97    96    1
    37    10     9   ar
    38    93    94    1
    39    93    90    1
    40    63    60    1
    41     3     2    1
    42    96    91   am
    43    62    61    2
    44    92    91    2
    45    60    61    1
    46    91    90    1
    47     6     5    1
    48     6     7   ar
    49    90    89    1
    50     5     2    1
    51     9     7   ar
    52     2     1    1
    53    89    80   am
    54    75    74    2
    55    71    69    1
    56    80    79    1
    57    80    81    2
    58    79    82    1
    59    79    78    1
    60    82    83    1
    61    16    15    1
    62    74    78   am
    63    74    73    1
    64    69    70    1
    65    69    66    1
    66    36    34   ar
    67    36    35   ar
    68    15    17    1
    69    15    12    1
    70    68    67    2
    71    34    32   ar
    72    83    85   ar
    73    83    84   ar
    74    67    72   am
    75    67    66    1
    76    35    33   ar
    77    85    87   ar
    78    73    72    1
    79    73    76    1
    80    11    12    1
    81    66    65    1
    82    12    13    1
    83    84    86   ar
    84    32    30   ar
    85    32    31   ar
    86    77    76    1
    87    87    88   ar
    88    33    30   ar
    89    30    28   ar
    90    31    29   ar
    91    13    18   am
    92    13    14    2
    93    18    19    1
    94    86    88   ar
    95    43    41    1
    96    22    19    1
    97    42    41    1
    98    29    28   ar
    99    28    27    1
   100    19    20    1
   101    41    38    1
   102    24    27    1
   103    24    23    1
   104    24    25    1
   105    26    25    2
   106    20    21    2
   107    38    39    1
   108    38    37    1
   109    40    39    2
