@<TRIPOS>MOLECULE
tmp/1nesA01.pdb
 105 100 0 0 0
SMALL
GASTEIGER

@<TRIPOS>ATOM
      1  N          3.3440   23.2380   31.0940 N.3    20  TYR20      -0.1241
      2  CA         3.9180   21.9540   30.6730 C.3    20  TYR20       0.1605
      3  C          4.4300   22.0460   29.2480 C.2    20  TYR20       0.2264
      4  O          4.0550   22.9790   28.5560 O.2    20  TYR20      -0.2867
      5  CB         2.8780   20.8150   30.7940 C.3    20  TYR20       0.0534
      6  CG         1.7000   20.9090   29.8270 C.ar   20  TYR20      -0.0201
      7  CD1        0.7580   21.8780   30.0430 C.ar   20  TYR20      -0.0009
      8  CD2        1.5710   20.0480   28.7680 C.ar   20  TYR20      -0.0009
      9  CE1       -0.2410   22.1000   29.1620 C.ar   20  TYR20       0.0417
     10  CE2        0.5460   20.2520   27.8900 C.ar   20  TYR20       0.0417
     11  CZ        -0.3160   21.3270   28.0610 C.ar   20  TYR20       0.1957
     12  OH        -1.3150   21.6200   27.1570 O.3    20  TYR20      -0.2866
     13  N          0.3930   27.2440   29.4900 N.3    28  HIS28      -0.1226
     14  CA        -0.1850   27.3360   30.7770 C.3    28  HIS28       0.1752
     15  C         -1.1690   26.2100   31.0560 C.2    28  HIS28       0.2597
     16  O         -2.0190   25.9000   30.2150 O.2    28  HIS28      -0.2718
     17  CB        -0.8570   28.7090   30.8840 C.3    28  HIS28       0.0759
     18  CG        -1.5010   28.9440   32.2350 C.ar   28  HIS28       0.0818
     19  ND1       -0.8720   29.4840   33.2430 N.ar   28  HIS28      -0.2268
     20  CD2       -2.7760   28.6260   32.6800 C.ar   28  HIS28       0.1154
     21  CE1       -1.6710   29.5650   34.3030 C.ar   28  HIS28       0.1986
     22  NE2       -2.8870   28.9850   33.9810 N.ar   28  HIS28      -0.2212
     23  N         -1.1260   25.5790   32.2540 N.am   29  THR29      -0.1939
     24  CA        -2.1500   24.6100   32.6850 C.3    29  THR29       0.2028
     25  C         -2.8920   25.0490   33.9580 C.2    29  THR29       0.2642
     26  O         -4.1050   24.8750   34.1180 O.2    29  THR29      -0.2714
     27  CB        -1.6740   23.1090   32.6940 C.3    29  THR29       0.1808
     28  OG1       -2.7670   22.3100   33.0490 O.3    29  THR29      -0.2208
     29  CG2       -0.5880   22.7670   33.6630 C.3    29  THR29       0.0379
     30  N         -2.1630   25.5910   34.8850 N.am   30  CYS30      -0.1967
     31  CA        -2.6180   25.8680   36.2770 C.3    30  CYS30       0.1712
     32  C         -1.9790   27.0910   36.8840 C.2    30  CYS30       0.2296
     33  O         -0.9230   27.4620   36.4050 O.2    30  CYS30      -0.2864
     34  CB        -2.3960   24.6110   37.1860 C.3    30  CYS30       0.0983
     35  SG        -3.5710   23.2720   36.9560 S.3    30  CYS30      -0.0798
     36  N         -4.5110   17.7320   41.4790 N.3    45  HIS45      -0.1226
     37  CA        -5.0020   17.3540   40.1530 C.3    45  HIS45       0.1752
     38  C         -4.2680   18.0380   39.0140 C.2    45  HIS45       0.2596
     39  O         -4.4820   17.6810   37.8600 O.2    45  HIS45      -0.2718
     40  CB        -6.4870   17.6190   40.0090 C.3    45  HIS45       0.0759
     41  CG        -6.9020   19.0610   39.7210 C.ar   45  HIS45       0.0818
     42  ND1       -7.4210   19.8600   40.6850 N.ar   45  HIS45      -0.2268
     43  CD2       -7.0950   19.7030   38.5300 C.ar   45  HIS45       0.1154
     44  CE1       -7.7960   21.0240   40.0850 C.ar   45  HIS45       0.1986
     45  NE2       -7.6350   20.9160   38.7560 N.ar   45  HIS45      -0.2212
     46  N         -3.4780   19.0760   39.2610 N.am   46  CYS46      -0.1970
     47  CA        -2.6950   19.7590   38.2080 C.3    46  CYS46       0.1712
     48  C         -1.5000   18.9450   37.7970 C.2    46  CYS46       0.2296
     49  O         -1.0220   19.1030   36.6840 O.2    46  CYS46      -0.2864
     50  CB        -2.2600   21.1980   38.6330 C.3    46  CYS46       0.0983
     51  SG        -3.5820   22.3930   38.7360 S.3    46  CYS46      -0.0798
     52  N         -0.7630   13.8920   36.0430 N.3    49  ARG49      -0.1245
     53  CA        -0.2870   13.4620   34.7650 C.3    49  ARG49       0.1563
     54  C          1.2200   13.4420   34.6050 C.2    49  ARG49       0.2260
     55  O          1.9590   14.2590   35.1500 O.2    49  ARG49      -0.2867
     56  CB        -0.7710   14.4940   33.7940 C.3    49  ARG49       0.0307
     57  CG        -2.2960   14.4810   33.7680 C.3    49  ARG49       0.0489
     58  CD        -2.7700   13.3660   32.8660 C.3    49  ARG49       0.2205
     59  NE        -2.2130   13.7950   31.5710 N.pl3  49  ARG49      -0.0865
     60  CZ        -2.7250   14.6340   30.6640 C.cat  49  ARG49       0.5346
     61  NH1       -3.9430   15.1380   30.7910 N.pl3  49  ARG49       0.1354
     62  NH2       -2.0170   14.8780   29.5510 N.pl3  49  ARG49       0.1354
     63  N          3.6400   14.7250   32.6090 N.3    51  LEU51      -0.1245
     64  CA         4.0070   15.8350   31.6870 C.3    51  LEU51       0.1561
     65  C          5.3170   16.3990   32.2010 C.2    51  LEU51       0.2260
     66  O          5.6160   16.1620   33.3760 O.2    51  LEU51      -0.2867
     67  CB         2.9310   16.9480   31.7630 C.3    51  LEU51       0.0270
     68  CG         1.4950   16.4990   31.3470 C.3    51  LEU51       0.0019
     69  CD1        0.4190   17.5140   31.8120 C.3    51  LEU51       0.0001
     70  CD2        1.3740   16.1570   29.8440 C.3    51  LEU51       0.0001
     71  N         -9.7300   30.2420   32.0820 N.3   134  LEU134     -0.1245
     72  CA       -10.7630   30.5650   31.0840 C.3   134  LEU134      0.1561
     73  C        -11.6270   31.7110   31.5730 C.2   134  LEU134      0.2260
     74  O        -11.9670   31.7780   32.7690 O.2   134  LEU134     -0.2867
     75  CB       -11.7770   29.4230   30.7810 C.3   134  LEU134      0.0270
     76  CG       -11.2180   28.0780   30.3420 C.3   134  LEU134      0.0019
     77  CD1      -12.3900   27.1770   29.8840 C.3   134  LEU134      0.0001
     78  CD2      -10.1130   28.1890   29.3240 C.3   134  LEU134      0.0001
     79  N         -8.2880   30.9470   27.6700 N.3   141  LEU141     -0.1245
     80  CA        -7.4350   31.4710   28.7220 C.3   141  LEU141      0.1561
     81  C         -7.3590   32.9480   28.5830 C.2   141  LEU141      0.2260
     82  O         -7.4920   33.3910   27.4190 O.2   141  LEU141     -0.2867
     83  CB        -6.0000   30.9000   28.6330 C.3   141  LEU141      0.0270
     84  CG        -5.8710   29.3800   28.9520 C.3   141  LEU141      0.0019
     85  CD1       -4.3920   28.9930   28.7430 C.3   141  LEU141      0.0001
     86  CD2       -6.2090   29.1030   30.4220 C.3   141  LEU141      0.0001
     87  N        -11.3370   26.4560   34.6310 N.3   185  GLN185     -0.1231
     88  CA       -10.1880   25.6170   34.2930 C.3   185  GLN185      0.1698
     89  C         -8.9990   26.4570   33.8340 C.2   185  GLN185      0.2592
     90  O         -9.2070   27.5390   33.2970 O.2   185  GLN185     -0.2718
     91  CB       -10.5970   24.6450   33.1470 C.3   185  GLN185      0.0381
     92  CG       -11.5210   23.5420   33.6610 C.3   185  GLN185      0.0905
     93  CD       -12.9850   23.9560   33.5990 C.2   185  GLN185      0.2608
     94  OE1      -13.3890   24.4850   32.5830 O.2   185  GLN185     -0.2717
     95  NE2      -13.7960   23.7430   34.6360 N.am  185  GLN185     -0.0878
     96  N         -7.7910   26.1460   34.2800 N.am  186  GLY186     -0.1957
     97  CA        -6.6250   27.0010   34.2280 C.3   186  GLY186      0.1869
     98  C         -6.4340   27.8350   35.4830 C.2   186  GLY186      0.2309
     99  O         -5.3520   28.4060   35.5820 O.2   186  GLY186     -0.2863
    100  N         -7.0430   26.5520   38.4670 N.3   188  SER188     -0.1217
    101  CA        -6.7630   25.5120   39.4860 C.3   188  SER188      0.1889
    102  C         -5.3540   25.4800   40.0580 C.2   188  SER188      0.2288
    103  O         -4.4480   25.8500   39.3340 O.2   188  SER188     -0.2866
    104  CB        -6.9580   24.1250   38.9380 C.3   188  SER188      0.2089
    105  OG        -8.2760   23.8650   38.4620 O.3   188  SER188     -0.2183
@<TRIPOS>BOND
     1    12    11    1
     2    82    81    2
     3    79    80    1
     4    10    11   ar
     5    10     8   ar
     6    11     9   ar
     7     4     3    2
     8    81    80    1
     9    83    80    1
    10    83    84    1
    11    85    84    1
    12     8     6   ar
    13    84    86    1
    14     9     7   ar
    15     3     2    1
    16    78    76    1
    17    13    14    1
    18    62    60    1
    19     6     7   ar
    20     6     5    1
    21    70    68    1
    22    77    76    1
    23    16    15    2
    24    76    75    1
    25    60    61    1
    26    60    59    2
    27     2     5    1
    28     2     1    1
    29    14    17    1
    30    14    15    1
    31    75    72    1
    32    17    18    1
    33    15    23   am
    34    72    73    1
    35    72    71    1
    36    68    67    1
    37    68    69    1
    38    59    58    1
    39    73    74    2
    40    64    67    1
    41    64    65    1
    42    64    63    1
    43    65    66    2
    44    18    20   ar
    45    18    19   ar
    46    23    24    1
    47    94    93    2
    48    20    22   ar
    49    24    27    1
    50    24    25    1
    51    27    28    1
    52    27    29    1
    53    58    57    1
    54    91    92    1
    55    91    88    1
    56    19    21   ar
    57    90    89    2
    58    93    92    1
    59    93    95   am
    60    57    56    1
    61    56    53    1
    62    89    96   am
    63    89    88    1
    64    25    26    2
    65    25    30   am
    66    22    21   ar
    67    97    96    1
    68    97    98    1
    69    88    87    1
    70    54    53    1
    71    54    55    2
    72    53    52    1
    73    30    31    1
    74    98    99    2
    75    31    32    1
    76    31    34    1
    77    33    32    2
    78    49    48    2
    79    35    34    1
    80    35    51    1
    81    48    47    1
    82    39    38    2
    83    47    50    1
    84    47    46    1
    85   105   104    1
    86   100   101    1
    87    43    45   ar
    88    43    41   ar
    89    50    51    1
    90    45    44   ar
    91   104   101    1
    92    38    46   am
    93    38    37    1
    94   103   102    2
    95   101   102    1
    96    41    40    1
    97    41    42   ar
    98    40    37    1
    99    44    42   ar
   100    37    36    1
