@<TRIPOS>MOLECULE
tmp/1nexB00.pdb
 147 140 0 0 0
SMALL
GASTEIGER

@<TRIPOS>ATOM
      1  N         54.6640   -5.5510   63.8710 N.3   114  VAL114     -0.1231
      2  CA        55.4360   -4.4650   64.4680 C.3   114  VAL114      0.1692
      3  C         56.6130   -4.0460   63.6210 C.2   114  VAL114      0.2592
      4  O         57.3850   -4.8870   63.1640 O.2   114  VAL114     -0.2718
      5  CB        55.9960   -4.8350   65.8690 C.3   114  VAL114      0.0266
      6  CG1       56.8090   -3.6800   66.4170 C.3   114  VAL114      0.0020
      7  CG2       54.8660   -5.1750   66.8210 C.3   114  VAL114      0.0020
      8  N         56.7380   -2.7400   63.4070 N.am  115  ILE115     -0.1966
      9  CA        57.8650   -2.2030   62.6640 C.3   115  ILE115      0.1727
     10  C         58.7860   -1.7210   63.7760 C.2   115  ILE115      0.2616
     11  O         58.3360   -1.1060   64.7460 O.2   115  ILE115     -0.2715
     12  CB        57.4800   -1.0050   61.7490 C.3   115  ILE115      0.0290
     13  CG1       56.4560   -1.4360   60.6980 C.3   115  ILE115      0.0022
     14  CG2       58.7190   -0.5140   60.9880 C.3   115  ILE115      0.0023
     15  CD1       57.0470   -2.2800   59.5990 C.3   115  ILE115      0.0001
     16  N         60.0760   -2.0050   63.6310 N.am  116  THR116     -0.1951
     17  CA        61.0710   -1.6400   64.6320 C.3   116  THR116      0.1897
     18  C         61.7980   -0.3550   64.3130 C.2   116  THR116      0.2313
     19  O         62.3330    0.3030   65.1980 O.2   116  THR116     -0.2863
     20  CB        62.1250   -2.7390   64.7550 C.3   116  THR116      0.1794
     21  OG1       62.7020   -2.9840   63.4630 O.3   116  THR116     -0.2208
     22  CG2       61.4910   -4.0070   65.2700 C.3   116  THR116      0.0378
     23  N         61.0270   -7.2100   63.0760 N.3   130  ASP130     -0.1239
     24  CA        61.5490   -8.4090   63.7250 C.3   130  ASP130      0.1674
     25  C         61.3610   -9.6260   62.8390 C.2   130  ASP130      0.2266
     26  O         61.5230  -10.7650   63.2840 O.2   130  ASP130     -0.2867
     27  CB        60.8720   -8.6480   65.0830 C.3   130  ASP130      0.1410
     28  CG        61.5900   -9.7110   65.9130 C.2   130  ASP130      0.3668
     29  OD1       62.7930   -9.5260   66.1920 O.co2 130  ASP130     -0.2456
     30  OD2       60.9560  -10.7240   66.2800 O.co2 130  ASP130     -0.2456
     31  N         66.6380   -4.1940   64.1310 N.3   155  TRP155     -0.1241
     32  CA        66.1620   -3.2510   65.1390 C.3   155  TRP155      0.1605
     33  C         66.7240   -1.8410   65.0630 C.2   155  TRP155      0.2264
     34  O         66.2720   -0.9560   65.7860 O.2   155  TRP155     -0.2867
     35  CB        66.3820   -3.8100   66.5420 C.3   155  TRP155      0.0550
     36  CG        65.4080   -4.8680   66.8570 C.ar  155  TRP155      0.0003
     37  CD1       65.4820   -6.1770   66.4940 C.ar  155  TRP155      0.0946
     38  CD2       64.1460   -4.7050   67.5300 C.ar  155  TRP155      0.0152
     39  NE1       64.3480   -6.8460   66.8930 N.ar  155  TRP155     -0.2442
     40  CE2       63.5140   -5.9700   67.5300 C.ar  155  TRP155      0.0810
     41  CE3       63.4940   -3.6170   68.1300 C.ar  155  TRP155      0.0012
     42  CZ2       62.2450   -6.1760   68.1110 C.ar  155  TRP155      0.0191
     43  CZ3       62.2310   -3.8240   68.7090 C.ar  155  TRP155      0.0001
     44  CH2       61.6240   -5.0940   68.6940 C.ar  155  TRP155      0.0015
     45  N         69.4070   -8.3700   66.0730 N.3   170  THR170     -0.1218
     46  CA        69.5720   -9.3490   67.1400 C.3   170  THR170      0.1862
     47  C         70.4940  -10.4450   66.6330 C.2   170  THR170      0.2287
     48  O         70.9800  -11.2820   67.3900 O.2   170  THR170     -0.2866
     49  CB        68.2210   -9.9480   67.5290 C.3   170  THR170      0.1770
     50  OG1       67.5780  -10.4850   66.3650 O.3   170  THR170     -0.2211
     51  CG2       67.3400   -8.8730   68.1380 C.3   170  THR170      0.0375
     52  N         73.1650   -8.4550   70.6880 N.3   194  THR194     -0.1218
     53  CA        72.3080   -7.6490   69.8070 C.3   194  THR194      0.1862
     54  C         72.7500   -6.2010   69.5940 C.2   194  THR194      0.2287
     55  O         73.1450   -5.5090   70.5360 O.2   194  THR194     -0.2866
     56  CB        70.8460   -7.5930   70.3310 C.3   194  THR194      0.1770
     57  OG1       70.2840   -8.9100   70.3400 O.3   194  THR194     -0.2211
     58  CG2       69.9860   -6.6840   69.4370 C.3   194  THR194      0.0375
     59  N         71.7930   -2.7460   69.3290 N.3   196  ARG196     -0.1245
     60  CA        70.6150   -2.0110   69.7690 C.3   196  ARG196      0.1563
     61  C         70.4060   -0.6420   69.1310 C.2   196  ARG196      0.2260
     62  O         69.2720   -0.1800   69.0080 O.2   196  ARG196     -0.2867
     63  CB        70.6590   -1.8400   71.2900 C.3   196  ARG196      0.0307
     64  CG        69.3490   -1.3710   71.8680 C.3   196  ARG196      0.0489
     65  CD        68.3000   -2.4460   71.6680 C.3   196  ARG196      0.2205
     66  NE        66.9460   -1.9760   71.9680 N.pl3 196  ARG196     -0.0865
     67  CZ        66.2940   -1.0640   71.2530 C.cat 196  ARG196      0.5346
     68  NH1       66.8600   -0.5100   70.1840 N.pl3 196  ARG196      0.1354
     69  NH2       65.0720   -0.7070   71.6120 N.pl3 196  ARG196      0.1354
     70  N         74.1080   -4.6380   73.2800 N.3   214  ARG214     -0.1245
     71  CA        73.7070   -5.1470   74.5850 C.3   214  ARG214      0.1563
     72  C         74.9050   -5.8340   75.2350 C.2   214  ARG214      0.2260
     73  O         74.7990   -6.4130   76.3130 O.2   214  ARG214     -0.2867
     74  CB        72.5680   -6.1320   74.4100 C.3   214  ARG214      0.0307
     75  CG        71.4270   -5.5340   73.6400 C.3   214  ARG214      0.0489
     76  CD        70.1750   -5.4410   74.4790 C.3   214  ARG214      0.2205
     77  NE        69.2730   -6.5380   74.1640 N.pl3 214  ARG214     -0.0865
     78  CZ        67.9500   -6.4190   74.1020 C.cat 214  ARG214      0.5346
     79  NH1       67.3780   -5.2430   74.3360 N.pl3 214  ARG214      0.1354
     80  NH2       67.1970   -7.4720   73.8010 N.pl3 214  ARG214      0.1354
     81  N         71.7550    1.7120   75.0400 N.3   251  ARG251     -0.1245
     82  CA        70.4040    1.9290   74.5090 C.3   251  ARG251      0.1563
     83  C         70.2210    2.9990   73.4500 C.2   251  ARG251      0.2260
     84  O         69.3480    2.8740   72.5880 O.2   251  ARG251     -0.2867
     85  CB        69.4290    2.2100   75.6570 C.3   251  ARG251      0.0307
     86  CG        68.0010    2.5040   75.2110 C.3   251  ARG251      0.0489
     87  CD        67.4470    1.3480   74.4070 C.3   251  ARG251      0.2205
     88  NE        66.7400    1.8170   73.2210 N.pl3 251  ARG251     -0.0865
     89  CZ        65.4200    1.8510   73.1130 C.cat 251  ARG251      0.5346
     90  NH1       64.6600    1.4370   74.1250 N.pl3 251  ARG251      0.1354
     91  NH2       64.8640    2.2990   71.9930 N.pl3 251  ARG251      0.1354
     92  N         71.9870    1.6210   80.0060 N.3   265  TYR265     -0.1241
     93  CA        71.0390    1.2130   81.0120 C.3   265  TYR265      0.1605
     94  C         71.7060    1.2760   82.3900 C.2   265  TYR265      0.2264
     95  O         71.0410    1.1570   83.4160 O.2   265  TYR265     -0.2867
     96  CB        70.5530   -0.1940   80.6850 C.3   265  TYR265      0.0534
     97  CG        69.3990   -0.2080   79.7120 C.ar  265  TYR265     -0.0201
     98  CD1       69.0390    0.9440   79.0050 C.ar  265  TYR265     -0.0009
     99  CD2       68.6290   -1.3590   79.5320 C.ar  265  TYR265     -0.0009
    100  CE1       67.9390    0.9490   78.1600 C.ar  265  TYR265      0.0417
    101  CE2       67.5220   -1.3630   78.6770 C.ar  265  TYR265      0.0417
    102  CZ        67.1840   -0.2030   78.0010 C.ar  265  TYR265      0.1957
    103  OH        66.0730   -0.1760   77.1900 O.3   265  TYR265     -0.2866
    104  N         67.9570    3.9470   84.0600 N.3   288  ARG288     -0.1245
    105  CA        68.3820    3.8190   82.6680 C.3   288  ARG288      0.1563
    106  C         67.9980    4.9580   81.7090 C.2   288  ARG288      0.2260
    107  O         66.9100    5.5430   81.8080 O.2   288  ARG288     -0.2867
    108  CB        67.8990    2.4670   82.0930 C.3   288  ARG288      0.0307
    109  CG        66.5130    2.0110   82.5780 C.3   288  ARG288      0.0489
    110  CD        65.9410    0.7780   81.8200 C.3   288  ARG288      0.2205
    111  NE        66.6090   -0.5090   82.0650 N.pl3 288  ARG288     -0.0865
    112  CZ        66.0790   -1.6980   81.7470 C.cat 288  ARG288      0.5346
    113  NH1       64.8770   -1.7770   81.1800 N.pl3 288  ARG288      0.1354
    114  NH2       66.7490   -2.8180   81.9870 N.pl3 288  ARG288      0.1354
    115  N         67.0510    6.1820   77.9720 N.3   290  TYR290     -0.1241
    116  CA        66.4230    5.6220   76.7780 C.3   290  TYR290      0.1605
    117  C         66.6050    6.4970   75.5440 C.2   290  TYR290      0.2264
    118  O         66.1550    6.1410   74.4540 O.2   290  TYR290     -0.2867
    119  CB        64.9320    5.4180   77.0060 C.3   290  TYR290      0.0534
    120  CG        64.6060    4.1410   77.7080 C.ar  290  TYR290     -0.0201
    121  CD1       64.0510    3.0620   77.0230 C.ar  290  TYR290     -0.0009
    122  CD2       64.8580    4.0010   79.0620 C.ar  290  TYR290     -0.0009
    123  CE1       63.7490    1.8680   77.6840 C.ar  290  TYR290      0.0417
    124  CE2       64.5640    2.8190   79.7310 C.ar  290  TYR290      0.0417
    125  CZ        64.0110    1.7570   79.0430 C.ar  290  TYR290      0.1957
    126  OH        63.7160    0.6050   79.7400 O.3   290  TYR290     -0.2866
    127  N         54.3550    6.4110   71.4330 N.3   371  THR371     -0.1218
    128  CA        55.1540    5.4510   70.6680 C.3   371  THR371      0.1862
    129  C         56.0690    6.1140   69.6440 C.2   371  THR371      0.2287
    130  O         57.1120    5.5760   69.2760 O.2   371  THR371     -0.2866
    131  CB        54.2450    4.4950   69.8910 C.3   371  THR371      0.1770
    132  OG1       53.3870    3.8210   70.8050 O.3   371  THR371     -0.2211
    133  CG2       55.0620    3.4630   69.1390 C.3   371  THR371      0.0375
    134  N         53.8240    2.9670   64.9080 N.3   411  TRP411     -0.1241
    135  CA        55.1700    2.5530   65.2690 C.3   411  TRP411      0.1605
    136  C         56.1890    3.6450   65.0300 C.2   411  TRP411      0.2264
    137  O         56.9190    4.0330   65.9300 O.2   411  TRP411     -0.2867
    138  CB        55.5690    1.2970   64.4810 C.3   411  TRP411      0.0550
    139  CG        54.7580    0.0650   64.8410 C.ar  411  TRP411      0.0003
    140  CD1       54.1960   -0.8260   63.9750 C.ar  411  TRP411      0.0946
    141  CD2       54.3750   -0.3590   66.1580 C.ar  411  TRP411      0.0152
    142  NE1       53.4910   -1.7780   64.6670 N.ar  411  TRP411     -0.2442
    143  CE2       53.5980   -1.5290   66.0050 C.ar  411  TRP411      0.0810
    144  CE3       54.6480    0.1070   67.4450 C.ar  411  TRP411      0.0012
    145  CZ2       53.0360   -2.2040   67.1030 C.ar  411  TRP411      0.0191
    146  CZ3       54.0900   -0.5690   68.5390 C.ar  411  TRP411      0.0001
    147  CH2       53.3090   -1.7230   68.3570 C.ar  411  TRP411      0.0015
@<TRIPOS>BOND
     1    15    13    1
     2    13    12    1
     3    14    12    1
     4    12     9    1
     5     9     8    1
     6     9    10    1
     7    25    26    2
     8    25    24    1
     9    23    24    1
    10     4     3    2
    11     8     3   am
    12    21    20    1
    13     3     2    1
    14    16    10   am
    15    16    17    1
    16    24    27    1
    17    10    11    2
    18     1     2    1
    19   140   142   ar
    20   140   139   ar
    21    31    32    1
    22    18    17    1
    23    18    19    2
    24     2     5    1
    25   138   139    1
    26   138   135    1
    27    17    20    1
    28   142   143   ar
    29    20    22    1
    30   139   141   ar
    31   134   135    1
    32   136   135    1
    33   136   137    2
    34    33    32    1
    35    33    34    2
    36    27    28    1
    37    32    35    1
    38     5     6    1
    39     5     7    1
    40    28    29   ar
    41    28    30   ar
    42   143   141   ar
    43   143   145   ar
    44    45    46    1
    45   141   144   ar
    46    50    49    1
    47    37    36   ar
    48    37    39   ar
    49    35    36    1
    50    47    46    1
    51    47    48    2
    52    36    38   ar
    53    39    40   ar
    54   145   147   ar
    55    46    49    1
    56   144   146   ar
    57    49    51    1
    58    40    38   ar
    59    40    42   ar
    60    38    41   ar
    61    42    44   ar
    62    41    43   ar
    63   147   146   ar
    64    44    43   ar
    65    62    61    2
    66    61    60    1
    67   133   131    1
    68   130   129    2
    69    59    60    1
    70    58    56    1
    71    54    53    1
    72    54    55    2
    73   129   128    1
    74    60    63    1
    75    53    56    1
    76    53    52    1
    77   131   128    1
    78   131   132    1
    79    68    67    1
    80    56    57    1
    81   128   127    1
    82    67    69    1
    83    67    66    2
    84    63    64    1
    85    65    64    1
    86    65    66    1
    87    91    89    1
    88    84    83    2
    89    89    88    2
    90    89    90    1
    91    88    87    1
    92    70    71    1
    93    83    82    1
    94    75    74    1
    95    75    76    1
    96    80    78    1
    97    78    77    2
    98    78    79    1
    99    77    76    1
   100    87    86    1
   101    74    71    1
   102   118   117    2
   103    82    81    1
   104    82    85    1
   105    71    72    1
   106    86    85    1
   107    72    73    2
   108   117   116    1
   109   116   119    1
   110   116   115    1
   111   119   120    1
   112   121   123   ar
   113   121   120   ar
   114   103   102    1
   115   123   125   ar
   116   120   122   ar
   117   102   100   ar
   118   102   101   ar
   119   100    98   ar
   120   101    99   ar
   121    98    97   ar
   122   125   124   ar
   123   125   126    1
   124   122   124   ar
   125    99    97   ar
   126    97    96    1
   127    92    93    1
   128    96    93    1
   129    93    94    1
   130   113   112    1
   131   106   107    2
   132   106   105    1
   133   112   114    1
   134   112   111    2
   135   110   111    1
   136   110   109    1
   137   108   109    1
   138   108   105    1
   139    94    95    2
   140   105   104    1
