@<TRIPOS>MOLECULE
tmp/1nexD00.pdb
 183 173 0 0 0
SMALL
GASTEIGER

@<TRIPOS>ATOM
      1  N        142.6900  -12.6810   36.9390 N.3   114  VAL114     -0.1231
      2  CA       141.9250  -11.5930   37.5490 C.3   114  VAL114      0.1692
      3  C        141.9720  -10.3110   36.7190 C.2   114  VAL114      0.2592
      4  O        143.0540   -9.8360   36.3750 O.2   114  VAL114     -0.2718
      5  CB       142.4840  -11.2580   38.9590 C.3   114  VAL114      0.0266
      6  CG1      141.7060  -10.1130   39.5770 C.3   114  VAL114      0.0020
      7  CG2      142.4320  -12.4810   39.8530 C.3   114  VAL114      0.0020
      8  N        140.8090   -9.7530   36.3990 N.am  115  ILE115     -0.1966
      9  CA       140.7580   -8.5030   35.6540 C.3   115  ILE115      0.1727
     10  C        140.5630   -7.4310   36.7180 C.2   115  ILE115      0.2616
     11  O        139.6940   -7.5780   37.5710 O.2   115  ILE115     -0.2715
     12  CB       139.5670   -8.4620   34.6910 C.3   115  ILE115      0.0290
     13  CG1      139.7130   -9.5520   33.6280 C.3   115  ILE115      0.0022
     14  CG2      139.4640   -7.0810   34.0530 C.3   115  ILE115      0.0023
     15  CD1      140.8940   -9.3890   32.7340 C.3   115  ILE115      0.0001
     16  N        141.3570   -6.3630   36.6780 N.am  116  THR116     -0.1951
     17  CA       141.2360   -5.3170   37.6930 C.3   116  THR116      0.1897
     18  C        140.3570   -4.1130   37.3280 C.2   116  THR116      0.2313
     19  O        140.0570   -3.2880   38.1850 O.2   116  THR116     -0.2863
     20  CB       142.6260   -4.8030   38.1440 C.3   116  THR116      0.1794
     21  OG1      143.1700   -3.9410   37.1380 O.3   116  THR116     -0.2208
     22  CG2      143.5850   -5.9790   38.3760 C.3   116  THR116      0.0378
     23  N        146.4600   -7.1590   36.4150 N.3   130  ASP130     -0.1239
     24  CA       147.7130   -7.1220   37.1420 C.3   130  ASP130      0.1674
     25  C        148.8300   -7.6170   36.2360 C.2   130  ASP130      0.2266
     26  O        149.9920   -7.6590   36.6380 O.2   130  ASP130     -0.2867
     27  CB       147.6310   -7.9660   38.4230 C.3   130  ASP130      0.1410
     28  CG       148.7060   -7.5850   39.4500 C.2   130  ASP130      0.3668
     29  OD1      148.8770   -6.3750   39.7210 O.co2 130  ASP130     -0.2456
     30  OD2      149.3780   -8.4890   40.0010 O.co2 130  ASP130     -0.2456
     31  N        145.4950   -0.8410   37.4400 N.3   155  TRP155     -0.1241
     32  CA       144.4270   -0.9230   38.4210 C.3   155  TRP155      0.1605
     33  C        143.3610    0.1680   38.2940 C.2   155  TRP155      0.2264
     34  O        142.3560    0.1390   39.0070 O.2   155  TRP155     -0.2867
     35  CB       145.0270   -0.9120   39.8350 C.3   155  TRP155      0.0550
     36  CG       145.6870   -2.2180   40.2130 C.ar  155  TRP155      0.0003
     37  CD1      146.9710   -2.6050   39.9360 C.ar  155  TRP155      0.0946
     38  CD2      145.0700   -3.3330   40.8840 C.ar  155  TRP155      0.0152
     39  NE1      147.1890   -3.8900   40.3890 N.ar  155  TRP155     -0.2442
     40  CE2      146.0390   -4.3600   40.9770 C.ar  155  TRP155      0.0810
     41  CE3      143.7890   -3.5630   41.4180 C.ar  155  TRP155      0.0012
     42  CZ2      145.7720   -5.5960   41.5800 C.ar  155  TRP155      0.0191
     43  CZ3      143.5210   -4.7950   42.0210 C.ar  155  TRP155      0.0001
     44  CH2      144.5130   -5.7950   42.0950 C.ar  155  TRP155      0.0015
     45  N        150.4230    0.2320   39.6510 N.3   170  THR170     -0.1218
     46  CA       151.3420    0.0870   40.7770 C.3   170  THR170      0.1862
     47  C        152.6910    0.6230   40.3310 C.2   170  THR170      0.2287
     48  O        153.6030    0.8290   41.1140 O.2   170  THR170     -0.2866
     49  CB       151.4870   -1.3910   41.1720 C.3   170  THR170      0.1770
     50  OG1      152.0570   -2.1300   40.0820 O.3   170  THR170     -0.2211
     51  CG2      150.1240   -1.9780   41.5140 C.3   170  THR170      0.0375
     52  N        153.6130    6.6900   44.9110 N.3   193  SER193     -0.1202
     53  CA       153.1070    5.3600   45.2250 C.3   193  SER193      0.2020
     54  C        152.0910    4.9280   44.1570 C.2   193  SER193      0.2619
     55  O        151.8670    5.6460   43.1870 O.2   193  SER193     -0.2717
     56  CB       152.4610    5.3940   46.6100 C.3   193  SER193      0.2103
     57  OG       152.6100    4.1590   47.2710 O.3   193  SER193     -0.2182
     58  N        151.4880    3.7560   44.3320 N.am  194  THR194     -0.1952
     59  CA       150.5030    3.2320   43.3810 C.3   194  THR194      0.1897
     60  C        149.3290    4.1810   43.1300 C.2   194  THR194      0.2313
     61  O        148.7980    4.7820   44.0620 O.2   194  THR194     -0.2863
     62  CB       149.8910    1.8990   43.8730 C.3   194  THR194      0.1794
     63  OG1      150.9280    0.9470   44.1210 O.3   194  THR194     -0.2208
     64  CG2      148.9250    1.3420   42.8420 C.3   194  THR194      0.0378
     65  N        145.7620    4.5020   42.6920 N.3   196  ARG196     -0.1245
     66  CA       144.6660    3.6150   43.0460 C.3   196  ARG196      0.1563
     67  C        143.3600    3.8940   42.2980 C.2   196  ARG196      0.2260
     68  O        142.6270    2.9670   41.9590 O.2   196  ARG196     -0.2867
     69  CB       144.4280    3.6780   44.5650 C.3   196  ARG196      0.0307
     70  CG       143.5310    2.5610   45.1390 C.3   196  ARG196      0.0489
     71  CD       144.1990    1.1920   45.0160 C.3   196  ARG196      0.2205
     72  NE       143.2830    0.0690   45.2140 N.pl3 196  ARG196     -0.0865
     73  CZ       142.2330   -0.2070   44.4370 C.cat 196  ARG196      0.5346
     74  NH1      141.9460    0.5700   43.3990 N.pl3 196  ARG196      0.1354
     75  NH2      141.4820   -1.2840   44.6770 N.pl3 196  ARG196      0.1354
     76  N        148.0740    5.9040   46.7540 N.3   214  ARG214     -0.1245
     77  CA       148.3390    5.3460   48.0710 C.3   214  ARG214      0.1563
     78  C        149.2610    6.3360   48.8080 C.2   214  ARG214      0.2260
     79  O        149.5080    6.1940   49.9990 O.2   214  ARG214     -0.2867
     80  CB       149.0420    3.9930   47.9430 C.3   214  ARG214      0.0307
     81  CG       148.3420    3.0490   47.0020 C.3   214  ARG214      0.0489
     82  CD       147.6830    1.8850   47.7170 C.3   214  ARG214      0.2205
     83  NE       148.4410    0.6570   47.5020 N.pl3 214  ARG214     -0.0865
     84  CZ       147.9000   -0.5510   47.4430 C.cat 214  ARG214      0.5346
     85  NH1      146.5900   -0.6950   47.5810 N.pl3 214  ARG214      0.1354
     86  NH2      148.6700   -1.6080   47.2470 N.pl3 214  ARG214      0.1354
     87  N        145.7650    6.1890   52.0510 N.3   249  SER249     -0.1217
     88  CA       145.4470    5.9290   50.6570 C.3   249  SER249      0.1889
     89  C        144.0900    6.4430   50.1780 C.2   249  SER249      0.2288
     90  O        143.0520    6.2160   50.8260 O.2   249  SER249     -0.2866
     91  CB       145.5450    4.4300   50.3760 C.3   249  SER249      0.2089
     92  OG       145.1210    4.1290   49.0620 O.3   249  SER249     -0.2183
     93  N        141.3660    5.8530   48.0960 N.3   251  ARG251     -0.1245
     94  CA       140.7870    4.6710   47.4930 C.3   251  ARG251      0.1563
     95  C        139.7980    4.8710   46.3530 C.2   251  ARG251      0.2260
     96  O        139.7620    4.0730   45.4270 O.2   251  ARG251     -0.2867
     97  CB       140.1300    3.8480   48.6140 C.3   251  ARG251      0.0307
     98  CG       139.3240    2.6180   48.1980 C.3   251  ARG251      0.0489
     99  CD       140.1780    1.5410   47.5180 C.3   251  ARG251      0.2205
    100  NE       139.5580    1.1390   46.2550 N.pl3 251  ARG251     -0.0865
    101  CZ       138.9880   -0.0370   46.0350 C.cat 251  ARG251      0.5346
    102  NH1      138.9570   -0.9580   46.9920 N.pl3 251  ARG251      0.1354
    103  NH2      138.4400   -0.2850   44.8530 N.pl3 251  ARG251      0.1354
    104  N        141.4100    5.9660   53.1350 N.3   265  TYR265     -0.1241
    105  CA       141.4920    4.9560   54.1750 C.3   265  TYR265      0.1605
    106  C        141.6440    5.6070   55.5300 C.2   265  TYR265      0.2264
    107  O        141.7850    4.9200   56.5320 O.2   265  TYR265     -0.2867
    108  CB       142.6520    3.9930   53.9120 C.3   265  TYR265      0.0534
    109  CG       142.2850    2.8670   52.9750 C.ar  265  TYR265     -0.0201
    110  CD1      141.0580    2.8690   52.2990 C.ar  265  TYR265     -0.0009
    111  CD2      143.1520    1.7890   52.7680 C.ar  265  TYR265     -0.0009
    112  CE1      140.7050    1.8340   51.4550 C.ar  265  TYR265      0.0417
    113  CE2      142.8040    0.7370   51.9120 C.ar  265  TYR265      0.0417
    114  CZ       141.5800    0.7730   51.2670 C.ar  265  TYR265      0.1957
    115  OH       141.2070   -0.2580   50.4500 O.3   265  TYR265     -0.2866
    116  N        137.6170    2.7710   57.0430 N.3   288  ARG288     -0.1245
    117  CA       137.9700    3.2510   55.7160 C.3   288  ARG288      0.1563
    118  C        136.8250    3.2760   54.7080 C.2   288  ARG288      0.2260
    119  O        135.9210    2.4530   54.7660 O.2   288  ARG288     -0.2867
    120  CB       139.1450    2.4360   55.1760 C.3   288  ARG288      0.0307
    121  CG       139.1040    1.0180   55.6110 C.3   288  ARG288      0.0489
    122  CD       140.0290    0.1760   54.8160 C.3   288  ARG288      0.2205
    123  NE       141.3850    0.2280   55.3270 N.pl3 288  ARG288     -0.0865
    124  CZ       142.3280   -0.6480   54.9880 C.cat 288  ARG288      0.5346
    125  NH1      142.0550   -1.6360   54.1360 N.pl3 288  ARG288      0.1354
    126  NH2      143.5450   -0.5370   55.5050 N.pl3 288  ARG288      0.1354
    127  N        135.4170    2.9830   50.8730 N.3   290  TYR290     -0.1241
    128  CA       135.7520    2.1600   49.7380 C.3   290  TYR290      0.1605
    129  C        135.1560    2.6500   48.3980 C.2   290  TYR290      0.2264
    130  O        135.6320    2.2840   47.3170 O.2   290  TYR290     -0.2867
    131  CB       135.3070    0.7270   50.0630 C.3   290  TYR290      0.0534
    132  CG       136.3930   -0.1180   50.7000 C.ar  290  TYR290     -0.0201
    133  CD1      137.2570   -0.8900   49.9050 C.ar  290  TYR290     -0.0009
    134  CD2      136.6060   -0.1100   52.0880 C.ar  290  TYR290     -0.0009
    135  CE1      138.3080   -1.6250   50.4710 C.ar  290  TYR290      0.0417
    136  CE2      137.6600   -0.8480   52.6620 C.ar  290  TYR290      0.0417
    137  CZ       138.5070   -1.5980   51.8430 C.ar  290  TYR290      0.1957
    138  OH       139.5640   -2.2970   52.3870 O.3   290  TYR290     -0.2866
    139  N        131.3240   -5.0580   55.0360 N.3   328  LEU328     -0.1245
    140  CA       131.9260   -3.9800   54.2410 C.3   328  LEU328      0.1561
    141  C        131.1250   -3.6640   52.9680 C.2   328  LEU328      0.2260
    142  O        130.8550   -4.5400   52.1380 O.2   328  LEU328     -0.2867
    143  CB       133.3710   -4.3540   53.8840 C.3   328  LEU328      0.0270
    144  CG       134.1920   -3.6520   52.7900 C.3   328  LEU328      0.0019
    145  CD1      134.0830   -4.3970   51.4770 C.3   328  LEU328      0.0001
    146  CD2      133.7260   -2.2120   52.6290 C.3   328  LEU328      0.0001
    147  N        130.5470   -1.3200   47.0020 N.3   331  LEU331     -0.1245
    148  CA       130.0400   -0.9310   45.6920 C.3   331  LEU331      0.1561
    149  C        128.8570    0.0110   45.6820 C.2   331  LEU331      0.2260
    150  O        127.8810   -0.2100   46.3890 O.2   331  LEU331     -0.2867
    151  CB       129.6640   -2.1650   44.9010 C.3   331  LEU331      0.0270
    152  CG       130.8010   -3.1730   44.8730 C.3   331  LEU331      0.0019
    153  CD1      130.3800   -4.3520   44.0320 C.3   331  LEU331      0.0001
    154  CD2      132.0720   -2.5200   44.3170 C.3   331  LEU331      0.0001
    155  N        129.5990   -9.6030   47.0610 N.3   370  ILE370     -0.1231
    156  CA       129.2660   -9.1190   45.7280 C.3   370  ILE370      0.1692
    157  C        130.5410   -8.4720   45.1930 C.2   370  ILE370      0.2592
    158  O        131.0680   -7.5280   45.7770 O.2   370  ILE370     -0.2718
    159  CB       128.1120   -8.0720   45.7500 C.3   370  ILE370      0.0266
    160  CG1      126.8400   -8.6950   46.3480 C.3   370  ILE370      0.0019
    161  CG2      127.8110   -7.5940   44.3240 C.3   370  ILE370      0.0020
    162  CD1      126.4140   -9.9990   45.6490 C.3   370  ILE370      0.0001
    163  N        131.0500   -8.9950   44.0920 N.am  371  THR371     -0.1953
    164  CA       132.2760   -8.4770   43.5190 C.3   371  THR371      0.1897
    165  C        132.0330   -7.3680   42.5100 C.2   371  THR371      0.2313
    166  O        132.8860   -6.5100   42.3140 O.2   371  THR371     -0.2863
    167  CB       133.0460   -9.5860   42.8020 C.3   371  THR371      0.1794
    168  OG1      133.3930  -10.6180   43.7370 O.3   371  THR371     -0.2208
    169  CG2      134.3070   -9.0150   42.1650 C.3   371  THR371      0.0378
    170  N        134.4330  -10.5790   37.7020 N.3   411  TRP411     -0.1241
    171  CA       135.2580   -9.4460   38.0960 C.3   411  TRP411      0.1605
    172  C        134.5970   -8.1100   37.8800 C.2   411  TRP411      0.2264
    173  O        134.4990   -7.2960   38.7980 O.2   411  TRP411     -0.2867
    174  CB       136.5800   -9.4850   37.3260 C.3   411  TRP411      0.0550
    175  CG       137.3660  -10.7010   37.6550 C.ar  411  TRP411      0.0003
    176  CD1      137.9240  -11.5840   36.7790 C.ar  411  TRP411      0.0946
    177  CD2      137.6040  -11.2220   38.9650 C.ar  411  TRP411      0.0152
    178  NE1      138.4930  -12.6280   37.4690 N.ar  411  TRP411     -0.2442
    179  CE2      138.3160  -12.4240   38.8120 C.ar  411  TRP411      0.0810
    180  CE3      137.2980  -10.7780   40.2570 C.ar  411  TRP411      0.0012
    181  CZ2      138.7000  -13.2080   39.9030 C.ar  411  TRP411      0.0191
    182  CZ3      137.6790  -11.5520   41.3380 C.ar  411  TRP411      0.0001
    183  CH2      138.3820  -12.7510   41.1570 C.ar  411  TRP411      0.0015
@<TRIPOS>BOND
     1    15    13    1
     2    13    12    1
     3    14    12    1
     4    12     9    1
     5     9     8    1
     6     9    10    1
     7    25    26    2
     8    25    24    1
     9     4     3    2
    10     8     3   am
    11    23    24    1
    12    16    10   am
    13    16    17    1
    14    10    11    2
    15     3     2    1
    16   176   178   ar
    17   176   175   ar
    18     1     2    1
    19    21    20    1
    20    24    27    1
    21   174   175    1
    22   174   171    1
    23    18    17    1
    24    18    19    2
    25    31    32    1
    26   178   179   ar
    27     2     5    1
    28   175   177   ar
    29    17    20    1
    30   170   171    1
    31   172   171    1
    32   172   173    2
    33    20    22    1
    34    33    32    1
    35    33    34    2
    36    32    35    1
    37    27    28    1
    38   179   177   ar
    39   179   181   ar
    40     5     6    1
    41     5     7    1
    42   177   180   ar
    43    28    29   ar
    44    28    30   ar
    45    45    46    1
    46    35    36    1
    47   181   183   ar
    48    37    36   ar
    49    37    39   ar
    50    50    49    1
    51    36    38   ar
    52   180   182   ar
    53    47    46    1
    54    47    48    2
    55    39    40   ar
    56    46    49    1
    57    38    40   ar
    58    38    41   ar
    59    40    42   ar
    60   183   182   ar
    61    49    51    1
    62    41    43   ar
    63    42    44   ar
    64    68    67    2
    65    43    44   ar
    66   169   167    1
    67    67    66    1
    68   166   165    2
    69   165   164    1
    70    65    66    1
    71   167   164    1
    72   167   168    1
    73    64    62    1
    74    66    69    1
    75    60    59    1
    76    60    61    2
    77    55    54    2
    78    59    62    1
    79    59    58    1
    80    74    73    1
    81   164   163    1
    82    62    63    1
    83   153   152    1
    84   163   157   am
    85    54    58   am
    86    54    53    1
    87   154   152    1
    88   161   159    1
    89    73    75    1
    90    73    72    2
    91    69    70    1
    92   103   101    1
    93   152   151    1
    94   151   148    1
    95    52    53    1
    96    71    70    1
    97    71    72    1
    98   157   156    1
    99   157   158    2
   100    53    56    1
   101    96    95    2
   102   162   160    1
   103   149   148    1
   104   149   150    2
   105   148   147    1
   106   156   159    1
   107   156   155    1
   108   159   160    1
   109   101   100    2
   110   101   102    1
   111   100    99    1
   112    95    94    1
   113    56    57    1
   114    76    77    1
   115    81    82    1
   116    81    80    1
   117    86    84    1
   118   130   129    2
   119    84    83    2
   120    84    85    1
   121    94    93    1
   122    94    97    1
   123    83    82    1
   124    99    98    1
   125    80    77    1
   126    77    78    1
   127    98    97    1
   128   129   128    1
   129    78    79    2
   130    92    91    1
   131   128   131    1
   132   128   127    1
   133   133   135   ar
   134   133   132   ar
   135   131   132    1
   136    89    88    1
   137    89    90    2
   138    91    88    1
   139   115   114    1
   140   135   137   ar
   141    88    87    1
   142   132   134   ar
   143   114   112   ar
   144   114   113   ar
   145   112   110   ar
   146   145   144    1
   147   137   138    1
   148   137   136   ar
   149   113   111   ar
   150   134   136   ar
   151   142   141    2
   152   110   109   ar
   153   146   144    1
   154   111   109   ar
   155   144   143    1
   156   141   140    1
   157   109   108    1
   158   104   105    1
   159   143   140    1
   160   108   105    1
   161   125   124    1
   162   105   106    1
   163   140   139    1
   164   118   119    2
   165   118   117    1
   166   122   123    1
   167   122   121    1
   168   124   123    2
   169   124   126    1
   170   120   121    1
   171   120   117    1
   172   106   107    2
   173   117   116    1
