@<TRIPOS>MOLECULE
tmp/1nf0A00.pdb
 95 88 0 0 0
SMALL
GASTEIGER

@<TRIPOS>ATOM
      1  N         27.0400   16.2190  141.8320 N.3     9  ASN9       -0.1240
      2  CA        25.9680   17.1250  142.1880 C.3     9  ASN9        0.1653
      3  C         26.5290   18.5460  142.1860 C.2     9  ASN9        0.2266
      4  O         27.2280   18.9820  143.1010 O.2     9  ASN9       -0.2867
      5  CB        25.3990   16.7550  143.5760 C.3     9  ASN9        0.1155
      6  CG        24.2650   17.6370  144.0510 C.2     9  ASN9        0.2627
      7  OD1       23.7920   18.4690  143.2570 O.2     9  ASN9       -0.2716
      8  ND2       23.8330   17.5180  145.3190 N.am    9  ASN9       -0.0877
      9  N         24.9730   21.2140  142.6170 N.3    11  LYS11      -0.1245
     10  CA        24.1830   22.0890  143.5160 C.3    11  LYS11       0.1561
     11  C         23.8770   23.4030  142.8010 C.2    11  LYS11       0.2260
     12  O         23.7690   23.4560  141.5650 O.2    11  LYS11      -0.2867
     13  CB        24.8780   22.2330  144.8700 C.3    11  LYS11       0.0271
     14  CG        25.2200   20.8800  145.4970 C.3    11  LYS11       0.0035
     15  CD        25.5550   21.0340  146.9860 C.3    11  LYS11       0.0206
     16  CE        25.7120   19.6400  147.6210 C.3    11  LYS11       0.1093
     17  NZ        26.2190   19.7300  149.0270 N.3    11  LYS11      -0.1314
     18  N         17.7930   14.6380  148.6580 N.3    94  HIS94      -0.1241
     19  CA        19.0410   15.2340  149.1230 C.3    94  HIS94       0.1621
     20  C         18.8930   15.9270  150.4720 C.2    94  HIS94       0.2264
     21  O         17.8360   16.5070  150.6910 O.2    94  HIS94      -0.2867
     22  CB        19.5430   16.2800  148.1130 C.3    94  HIS94       0.0745
     23  CG        20.9710   16.5990  148.4270 C.ar   94  HIS94       0.0817
     24  ND1       21.3450   17.5650  149.3260 N.ar   94  HIS94      -0.2268
     25  CD2       22.0990   16.0320  147.9320 C.ar   94  HIS94       0.1154
     26  CE1       22.6700   17.5820  149.3810 C.ar   94  HIS94       0.1986
     27  NE2       23.1510   16.6770  148.5470 N.ar   94  HIS94      -0.2212
     28  N         19.7560   18.6400  151.5760 N.3    96  GLU96      -0.1245
     29  CA        19.4140   20.0710  151.5140 C.3    96  GLU96       0.1567
     30  C         17.9440   20.2750  151.2240 C.2    96  GLU96       0.2260
     31  O         17.3110   21.2500  151.6390 O.2    96  GLU96      -0.2867
     32  CB        20.3280   20.7710  150.4960 C.3    96  GLU96       0.0388
     33  CG        21.7810   20.7120  150.9700 C.3    96  GLU96       0.1160
     34  CD        22.8210   20.8310  149.8940 C.2    96  GLU96       0.3649
     35  OE1       24.0300   20.6590  150.2070 O.co2  96  GLU96      -0.2457
     36  OE2       22.4630   21.0780  148.7180 O.co2  96  GLU96      -0.2457
     37  N         24.5540    9.9770  152.8370 N.3   164  GLU164     -0.1245
     38  CA        25.1150   11.2750  153.1600 C.3   164  GLU164      0.1567
     39  C         25.4440   11.4090  154.6460 C.2   164  GLU164      0.2260
     40  O         24.4860   11.6730  155.3840 O.2   164  GLU164     -0.2867
     41  CB        24.0720   12.3370  152.8250 C.3   164  GLU164      0.0388
     42  CG        23.8270   12.7140  151.3760 C.3   164  GLU164      0.1160
     43  CD        23.0180   14.0010  151.3010 C.2   164  GLU164      0.3649
     44  OE1       21.8150   13.9090  151.0100 O.co2 164  GLU164     -0.2457
     45  OE2       23.5370   15.1140  151.5540 O.co2 164  GLU164     -0.2457
     46  N         29.1050   17.4180  158.2300 N.3   168  ILE168     -0.1245
     47  CA        29.1490   18.6230  157.3850 C.3   168  ILE168      0.1561
     48  C         29.4320   19.8700  158.2020 C.2   168  ILE168      0.2260
     49  O         28.5420   20.4280  158.8350 O.2   168  ILE168     -0.2867
     50  CB        27.8380   18.7750  156.5960 C.3   168  ILE168      0.0252
     51  CG1       27.5670   17.6410  155.5940 C.3   168  ILE168      0.0019
     52  CG2       27.8140   20.1220  155.8930 C.3   168  ILE168      0.0019
     53  CD1       26.1220   17.5630  155.1370 C.3   168  ILE168      0.0001
     54  N         28.5660    9.8030  150.1480 N.3   207  GLY207     -0.1210
     55  CA        28.4960   11.2420  149.8740 C.3   207  GLY207      0.1956
     56  C         28.8660   12.1470  151.0190 C.2   207  GLY207      0.2612
     57  O         28.4940   11.9000  152.1660 O.2   207  GLY207     -0.2717
     58  N         29.5900   13.2700  150.9010 N.am  208  GLY208     -0.1942
     59  CA        29.8850   14.0630  152.0830 C.3   208  GLY208      0.2014
     60  C         31.3510   14.4020  152.2820 C.2   208  GLY208      0.2640
     61  O         32.0640   13.6870  152.9920 O.2   208  GLY208     -0.2714
     62  N         31.8280   15.4680  151.6620 N.am  209  SER209     -0.1935
     63  CA        33.2160   15.9190  151.6680 C.3   209  SER209      0.2055
     64  C         34.1250   14.9240  150.9490 C.2   209  SER209      0.2639
     65  O         35.2100   14.5620  151.4100 O.2   209  SER209     -0.2714
     66  CB        33.6970   16.1890  153.0960 C.3   209  SER209      0.2130
     67  OG        33.0500   17.3130  153.6790 O.3   209  SER209     -0.2179
     68  N         33.7100   14.4690  149.7710 N.am  210  ALA210     -0.2030
     69  CA        34.5650   13.6570  148.8840 C.3   210  ALA210      0.1283
     70  C         35.0420   14.4740  147.7660 C.3   210  ALA210      0.2036
     71  O         35.1080   15.2810  146.9290 O.3   210  ALA210     -0.2185
     72  CB        33.7500   12.4370  148.4420 C.3   210  ALA210      0.0262
     73  N         28.7480   10.1590  145.5630 N.3   228  LEU228     -0.1231
     74  CA        27.9280   11.2800  145.0970 C.3   228  LEU228      0.1693
     75  C         28.7460   12.5310  145.4890 C.2   228  LEU228      0.2592
     76  O         28.7690   12.8400  146.6900 O.2   228  LEU228     -0.2718
     77  CB        26.5110   11.2760  145.6370 C.3   228  LEU228      0.0284
     78  CG        25.6030   12.4370  145.1730 C.3   228  LEU228      0.0019
     79  CD1       25.4630   12.4430  143.6660 C.3   228  LEU228      0.0001
     80  CD2       24.2150   12.3830  145.7920 C.3   228  LEU228      0.0001
     81  N         29.4530   13.0860  144.5110 N.am  229  VAL229     -0.1966
     82  CA        30.4520   14.1370  144.7670 C.3   229  VAL229      0.1727
     83  C         29.7880   15.5040  144.8180 C.2   229  VAL229      0.2617
     84  O         28.8870   15.7350  143.9980 O.2   229  VAL229     -0.2715
     85  CB        31.5830   14.0760  143.7190 C.3   229  VAL229      0.0290
     86  CG1       32.6310   15.1080  144.0900 C.3   229  VAL229      0.0023
     87  CG2       32.1840   12.6870  143.6760 C.3   229  VAL229      0.0023
     88  N         30.1440   16.3890  145.7220 N.am  230  GLY230     -0.1940
     89  CA        29.6160   17.7420  145.7800 C.3   230  GLY230      0.2014
     90  C         30.5640   18.7220  145.0810 C.2   230  GLY230      0.2639
     91  O         30.6910   18.6840  143.8500 O.2   230  GLY230     -0.2714
     92  N         31.2160   19.5800  145.8500 N.am  231  GLY231     -0.1954
     93  CA        32.1050   20.6260  145.3530 C.3   231  GLY231      0.1869
     94  C         33.1790   20.1210  144.4220 C.2   231  GLY231      0.2309
     95  O         33.5250   20.7850  143.4340 O.2   231  GLY231     -0.2863
@<TRIPOS>BOND
     1    12    11    2
     2     1     2    1
     3     3     2    1
     4     3     4    2
     5     2     5    1
     6     9    10    1
     7    11    10    1
     8     7     6    2
     9    95    94    2
    10    10    13    1
    11     5     6    1
    12    79    78    1
    13    87    85    1
    14    85    86    1
    15    85    82    1
    16    91    90    2
    17    84    83    2
    18     6     8   am
    19    94    93    1
    20    81    82    1
    21    81    75   am
    22    82    83    1
    23    83    88   am
    24    13    14    1
    25    90    89    1
    26    90    92   am
    27    74    75    1
    28    74    73    1
    29    74    77    1
    30    78    77    1
    31    78    80    1
    32    93    92    1
    33    75    76    2
    34    14    15    1
    35    88    89    1
    36    71    70    1
    37    15    16    1
    38    16    17    1
    39    70    69    1
    40    25    23   ar
    41    25    27   ar
    42    22    23    1
    43    22    19    1
    44    23    24   ar
    45    72    69    1
    46    27    26   ar
    47    18    19    1
    48    36    34   ar
    49    69    68    1
    50    19    20    1
    51    24    26   ar
    52    68    64   am
    53    55    54    1
    54    55    56    1
    55    34    35   ar
    56    34    33    1
    57    20    21    2
    58    32    33    1
    59    32    29    1
    60    58    56   am
    61    58    59    1
    62    64    65    2
    63    64    63    1
    64    44    43   ar
    65    56    57    2
    66    30    29    1
    67    30    31    2
    68    43    42    1
    69    43    45   ar
    70    42    41    1
    71    29    28    1
    72    62    63    1
    73    62    60   am
    74    63    66    1
    75    59    60    1
    76    60    61    2
    77    41    38    1
    78    37    38    1
    79    66    67    1
    80    38    39    1
    81    39    40    2
    82    53    51    1
    83    51    50    1
    84    52    50    1
    85    50    47    1
    86    47    48    1
    87    47    46    1
    88    48    49    2
