@<TRIPOS>MOLECULE
tmp/1nf3B00.pdb
 172 169 0 0 0
SMALL
GASTEIGER

@<TRIPOS>ATOM
      1  N         23.5250   30.2120   34.0770 N.3    16  GLY16      -0.1210
      2  CA        24.8220   30.8210   33.9550 C.3    16  GLY16       0.1956
      3  C         25.0770   31.0080   32.4730 C.2    16  GLY16       0.2612
      4  O         24.6460   30.1850   31.6530 O.2    16  GLY16      -0.2717
      5  N         25.7170   32.1250   32.1400 N.am   17  ALA17      -0.1965
      6  CA        26.0840   32.4650   30.7670 C.3    17  ALA17       0.1728
      7  C         24.9750   32.8240   29.7880 C.2    17  ALA17       0.2616
      8  O         25.2490   32.9550   28.5900 O.2    17  ALA17      -0.2715
      9  CB        26.9430   31.3540   30.1770 C.3    17  ALA17       0.0334
     10  N         23.7340   32.9850   30.2540 N.am   18  VAL18      -0.1963
     11  CA        22.6740   33.3540   29.3170 C.3    18  VAL18       0.1727
     12  C         22.8140   34.8000   28.8660 C.2    18  VAL18       0.2617
     13  O         22.2490   35.1840   27.8430 O.2    18  VAL18      -0.2715
     14  CB        21.2450   33.1750   29.8790 C.3    18  VAL18       0.0290
     15  CG1       20.9790   31.7140   30.1930 C.3    18  VAL18       0.0023
     16  CG2       21.0310   34.0620   31.0780 C.3    18  VAL18       0.0023
     17  N         23.5700   35.5900   29.6280 N.am   19  GLY19      -0.1940
     18  CA        23.7900   36.9930   29.2910 C.3    19  GLY19       0.2014
     19  C         23.2100   38.0300   30.2540 C.2    19  GLY19       0.2639
     20  O         23.0160   39.1890   29.8690 O.2    19  GLY19      -0.2714
     21  N         22.9510   37.6330   31.5020 N.am   20  LYS20      -0.1963
     22  CA        22.3800   38.5560   32.4900 C.3    20  LYS20       0.1728
     23  C         23.1900   39.8170   32.7390 C.2    20  LYS20       0.2617
     24  O         22.6640   40.9340   32.6730 O.2    20  LYS20      -0.2715
     25  CB        22.1650   37.8320   33.8350 C.3    20  LYS20       0.0311
     26  CG        21.1680   36.6780   33.7160 C.3    20  LYS20       0.0038
     27  CD        20.8240   36.0300   35.0680 C.3    20  LYS20       0.0206
     28  CE        22.0530   35.3610   35.6630 C.3    20  LYS20       0.1093
     29  NZ        22.7170   34.4490   34.6720 N.3    20  LYS20      -0.1314
     30  N         24.4700   39.6410   33.0440 N.am   21  THR21      -0.1937
     31  CA        25.3150   40.7770   33.3400 C.3    21  THR21       0.2028
     32  C         25.5090   41.6700   32.1210 C.2    21  THR21       0.2642
     33  O         25.4600   42.8980   32.2420 O.2    21  THR21      -0.2714
     34  CB        26.6630   40.3130   33.9110 C.3    21  THR21       0.1808
     35  OG1       26.4450   39.6570   35.1730 O.3    21  THR21      -0.2208
     36  CG2       27.5860   41.4970   34.1360 C.3    21  THR21       0.0379
     37  N         25.7120   41.0780   30.9430 N.am   22  CYS22      -0.1967
     38  CA        25.8840   41.9070   29.7520 C.3    22  CYS22       0.1712
     39  C         24.6180   42.6930   29.5030 C.2    22  CYS22       0.2296
     40  O         24.6600   43.8750   29.1630 O.2    22  CYS22      -0.2864
     41  CB        26.2140   41.0510   28.5340 C.3    22  CYS22       0.0983
     42  SG        27.9000   40.4520   28.5760 S.3    22  CYS22      -0.0798
     43  N         29.8130   46.6840   26.5760 N.3    32  PHE32      -0.1228
     44  CA        29.6230   45.2520   26.4950 C.3    32  PHE32       0.1721
     45  C         30.8910   44.5540   26.9610 C.2    32  PHE32       0.2437
     46  O         31.9170   44.6010   26.2890 O.2    32  PHE32      -0.2733
     47  CB        29.3070   44.8370   25.0550 C.3    32  PHE32       0.0547
     48  CG        28.7880   43.4320   24.9300 C.ar   32  PHE32      -0.0202
     49  CD1       27.4520   43.1410   25.1950 C.ar   32  PHE32      -0.0042
     50  CD2       29.6370   42.3920   24.5610 C.ar   32  PHE32      -0.0042
     51  CE1       26.9630   41.8310   25.0960 C.ar   32  PHE32      -0.0003
     52  CE2       29.1580   41.0780   24.4580 C.ar   32  PHE32      -0.0003
     53  CZ        27.8180   40.8000   24.7260 C.ar   32  PHE32      -0.0000
     54  N         30.8410   43.9150   28.1360 N.am   33  PRO33      -0.2718
     55  CA        32.0310   43.2210   28.6280 C.3    33  PRO33       0.1535
     56  C         32.4470   42.1470   27.6110 C.2    33  PRO33       0.2599
     57  O         31.5980   41.5050   26.9890 O.2    33  PRO33      -0.2715
     58  CB        31.5560   42.6170   29.9510 C.3    33  PRO33       0.0310
     59  CG        30.5130   43.5830   30.4120 C.3    33  PRO33       0.0237
     60  CD        29.7590   43.8780   29.1350 C.3    33  PRO33       0.0939
     61  N         33.7500   41.9640   27.4380 N.am   34  SER34      -0.1936
     62  CA        34.2610   40.9700   26.5010 C.3    34  SER34       0.2055
     63  C         34.4180   39.6370   27.2180 C.2    34  SER34       0.2643
     64  O         33.9480   38.6020   26.7450 O.2    34  SER34      -0.2714
     65  CB        35.6170   41.4180   25.9610 C.3    34  SER34       0.2130
     66  OG        36.5170   41.6810   27.0300 O.3    34  SER34      -0.2179
     67  N         35.0790   39.6910   28.3700 N.am   35  GLU35      -0.1963
     68  CA        35.3460   38.5210   29.1990 C.3    35  GLU35       0.1733
     69  C         34.1450   38.0970   30.0560 C.2    35  GLU35       0.2616
     70  O         33.4260   38.9410   30.5930 O.2    35  GLU35      -0.2715
     71  CB        36.5620   38.8280   30.0930 C.3    35  GLU35       0.0429
     72  CG        36.6810   38.0340   31.4130 C.3    35  GLU35       0.1163
     73  CD        37.2770   36.6330   31.2580 C.2    35  GLU35       0.3649
     74  OE1       37.5840   36.0010   32.3020 O.co2  35  GLU35      -0.2457
     75  OE2       37.4350   36.1640   30.1040 O.co2  35  GLU35      -0.2457
     76  N         33.9250   36.7880   30.1660 N.am   36  TYR36      -0.1960
     77  CA        32.8370   36.2780   30.9890 C.3    36  TYR36       0.1771
     78  C         33.3440   35.9400   32.3820 C.2    36  TYR36       0.2619
     79  O         34.2380   35.1120   32.5520 O.2    36  TYR36      -0.2715
     80  CB        32.1930   35.0430   30.3560 C.3    36  TYR36       0.0574
     81  CG        31.3460   34.2080   31.3080 C.ar   36  TYR36      -0.0198
     82  CD1       30.5170   34.8080   32.2720 C.ar   36  TYR36      -0.0009
     83  CD2       31.3660   32.8150   31.2390 C.ar   36  TYR36      -0.0009
     84  CE1       29.7390   34.0360   33.1380 C.ar   36  TYR36       0.0417
     85  CE2       30.5930   32.0410   32.0960 C.ar   36  TYR36       0.0417
     86  CZ        29.7840   32.6580   33.0420 C.ar   36  TYR36       0.1957
     87  OH        29.0350   31.8770   33.8730 O.3    36  TYR36      -0.2866
     88  N         32.7770   36.6110   33.3730 N.am   37  VAL37      -0.1964
     89  CA        33.1390   36.3930   34.7610 C.3    37  VAL37       0.1712
     90  C         31.8480   36.0840   35.5090 C.2    37  VAL37       0.2458
     91  O         30.9810   36.9450   35.6170 O.2    37  VAL37      -0.2730
     92  CB        33.7570   37.6480   35.3780 C.3    37  VAL37       0.0289
     93  CG1       34.0730   37.3970   36.8540 C.3    37  VAL37       0.0023
     94  CG2       34.9990   38.0440   34.6080 C.3    37  VAL37       0.0023
     95  N         31.6930   34.8480   36.0090 N.am   38  PRO38      -0.2716
     96  CA        30.4750   34.5020   36.7330 C.3    38  PRO38       0.1536
     97  C         30.1340   35.4960   37.8400 C.2    38  PRO38       0.2599
     98  O         30.9990   35.9510   38.5870 O.2    38  PRO38      -0.2715
     99  CB        30.7760   33.1030   37.2570 C.3    38  PRO38       0.0310
    100  CG        31.5620   32.5180   36.1260 C.3    38  PRO38       0.0237
    101  CD        32.5210   33.6510   35.7820 C.3    38  PRO38       0.0939
    102  N         28.8560   35.8280   37.9170 N.am   39  THR39      -0.1951
    103  CA        28.3520   36.7660   38.8990 C.3    39  THR39       0.1897
    104  C         28.0550   36.0200   40.1800 C.2    39  THR39       0.2313
    105  O         27.6150   34.8690   40.1430 O.2    39  THR39      -0.2863
    106  CB        27.0250   37.3810   38.4360 C.3    39  THR39       0.1794
    107  OG1       27.2060   37.9710   37.1490 O.3    39  THR39      -0.2208
    108  CG2       26.5170   38.4280   39.4520 C.3    39  THR39       0.0378
    109  N         22.3350   38.5090   39.7880 N.3    62  THR62      -0.1218
    110  CA        22.5440   37.2790   40.5600 C.3    62  THR62       0.1862
    111  C         23.3030   36.1870   39.7980 C.2    62  THR62       0.2287
    112  O         23.4790   36.2380   38.5830 O.2    62  THR62      -0.2866
    113  CB        21.2150   36.6640   40.9850 C.3    62  THR62       0.1770
    114  OG1       20.4960   36.2770   39.8160 O.3    62  THR62      -0.2211
    115  CG2       20.3730   37.6800   41.8140 C.3    62  THR62       0.0375
    116  N         23.9720   32.8100   37.9870 N.3    64  GLY64      -0.1210
    117  CA        23.3370   31.7530   37.2190 C.3    64  GLY64       0.1956
    118  C         23.8890   30.3720   37.6160 C.2    64  GLY64       0.2611
    119  O         23.2310   29.3490   37.4010 O.2    64  GLY64      -0.2717
    120  N         25.0710   30.3230   38.2290 N.am   65  LEU65      -0.1979
    121  CA        25.6640   29.0380   38.6020 C.3    65  LEU65       0.1596
    122  C         25.0720   28.4360   39.8640 C.2    65  LEU65       0.2287
    123  O         25.0140   29.0800   40.9120 O.2    65  LEU65      -0.2864
    124  CB        27.1870   29.1760   38.7620 C.3    65  LEU65       0.0297
    125  CG        27.9070   29.4940   37.4360 C.3    65  LEU65       0.0022
    126  CD1       29.4060   29.7000   37.6540 C.3    65  LEU65       0.0001
    127  CD2       27.6520   28.3570   36.4560 C.3    65  LEU65       0.0001
    128  N         17.3920   36.3050   25.6700 N.3   119  THR119     -0.1203
    129  CA        18.6180   37.0720   25.4420 C.3   119  THR119      0.1994
    130  C         19.3650   36.5790   24.1850 C.2   119  THR119      0.2617
    131  O         18.9290   35.6450   23.5250 O.2   119  THR119     -0.2717
    132  CB        19.5700   36.9540   26.6510 C.3   119  THR119      0.1784
    133  OG1       19.9180   35.5800   26.8460 O.3   119  THR119     -0.2211
    134  CG2       18.8890   37.4750   27.9420 C.3   119  THR119      0.0376
    135  N         20.4840   37.2260   23.8730 N.am  120  GLN120     -0.1979
    136  CA        21.3350   36.8640   22.7280 C.3   120  GLN120      0.1601
    137  C         20.6140   36.5680   21.4120 C.2   120  GLN120      0.2287
    138  O         21.0600   35.7060   20.6450 O.2   120  GLN120     -0.2864
    139  CB        22.1940   35.6530   23.1080 C.3   120  GLN120      0.0394
    140  CG        22.9190   35.8140   24.4430 C.3   120  GLN120      0.0908
    141  CD        23.9490   34.7350   24.6930 C.2   120  GLN120      0.2608
    142  OE1       24.4680   34.1290   23.7610 O.2   120  GLN120     -0.2717
    143  NE2       24.2690   34.5050   25.9550 N.am  120  GLN120     -0.0878
    144  N         20.7530   37.9530   18.7350 N.3   122  ASP122     -0.1225
    145  CA        21.5580   38.1830   17.5410 C.3   122  ASP122      0.1805
    146  C         22.1490   36.8630   17.0550 C.2   122  ASP122      0.2597
    147  O         22.3100   36.6530   15.8530 O.2   122  ASP122     -0.2718
    148  CB        22.6850   39.1910   17.8020 C.3   122  ASP122      0.1424
    149  CG        23.4650   38.8920   19.0660 C.2   122  ASP122      0.3668
    150  OD1       22.8710   38.9840   20.1710 O.co2 122  ASP122     -0.2456
    151  OD2       24.6710   38.5710   18.9630 O.co2 122  ASP122     -0.2456
    152  N         22.4500   35.9610   17.9820 N.am  123  LEU123     -0.1979
    153  CA        23.0350   34.6790   17.6040 C.3   123  LEU123      0.1596
    154  C         22.0360   33.7150   16.9850 C.2   123  LEU123      0.2287
    155  O         22.4180   32.6440   16.5160 O.2   123  LEU123     -0.2864
    156  CB        23.6890   34.0090   18.8160 C.3   123  LEU123      0.0297
    157  CG        24.8900   34.7430   19.4090 C.3   123  LEU123      0.0022
    158  CD1       25.5620   33.8710   20.4470 C.3   123  LEU123      0.0001
    159  CD2       25.8720   35.0870   18.3000 C.3   123  LEU123      0.0001
    160  N         22.0570   42.1700   24.1600 N.3   163  ALA163     -0.1231
    161  CA        22.8590   43.1850   24.8330 C.3   163  ALA163      0.1694
    162  C         23.9550   43.6570   23.8860 C.2   163  ALA163      0.2591
    163  O         24.5390   44.7230   24.0730 O.2   163  ALA163     -0.2718
    164  CB        23.4830   42.6140   26.0940 C.3   163  ALA163      0.0304
    165  N         24.2280   42.8530   22.8630 N.am  164  LEU164     -0.1980
    166  CA        25.2750   43.1620   21.8950 C.3   164  LEU164      0.1596
    167  C         24.8910   44.2540   20.8950 C.2   164  LEU164      0.2287
    168  O         25.6180   45.2290   20.7380 O.2   164  LEU164     -0.2864
    169  CB        25.6850   41.8810   21.1540 C.3   164  LEU164      0.0297
    170  CG        26.7670   41.9770   20.0690 C.3   164  LEU164      0.0022
    171  CD1       28.0320   42.6380   20.6090 C.3   164  LEU164      0.0001
    172  CD2       27.0760   40.5800   19.5740 C.3   164  LEU164      0.0001
@<TRIPOS>BOND
     1   147   146    2
     2   155   154    2
     3   154   153    1
     4   146   145    1
     5   146   152   am
     6   145   148    1
     7   145   144    1
     8   153   152    1
     9   153   156    1
    10   148   149    1
    11   159   157    1
    12   156   157    1
    13   151   149   ar
    14   149   150   ar
    15   157   158    1
    16   172   170    1
    17   170   171    1
    18   170   169    1
    19   138   137    2
    20   168   167    2
    21   167   166    1
    22   169   166    1
    23   137   136    1
    24   166   165    1
    25   136   139    1
    26   136   135    1
    27   165   162   am
    28   139   140    1
    29   131   130    2
    30   142   141    2
    31   135   130   am
    32   162   163    2
    33   162   161    1
    34   160   161    1
    35   130   129    1
    36   140   141    1
    37    52    50   ar
    38    52    53   ar
    39    50    48   ar
    40   141   143   am
    41    53    51   ar
    42   161   164    1
    43    48    47    1
    44    48    49   ar
    45    47    44    1
    46    51    49   ar
    47   129   128    1
    48   129   132    1
    49    65    62    1
    50    65    66    1
    51    46    45    2
    52    44    43    1
    53    44    45    1
    54    62    63    1
    55    62    61    1
    56   132   133    1
    57   132   134    1
    58    64    63    2
    59    45    54   am
    60    57    56    2
    61    63    67   am
    62    61    56   am
    63    56    55    1
    64    13    12    2
    65    54    55    1
    66    54    60    1
    67    67    68    1
    68    41    42    1
    69    41    38    1
    70     8     7    2
    71    55    58    1
    72    12    11    1
    73    12    17   am
    74    60    59    1
    75    40    39    2
    76    68    69    1
    77    68    71    1
    78    18    17    1
    79    18    19    1
    80    11    14    1
    81    11    10    1
    82    39    38    1
    83    38    37    1
    84     7    10   am
    85     7     6    1
    86    20    19    2
    87    14    15    1
    88    14    16    1
    89    58    59    1
    90    69    76   am
    91    69    70    2
    92    71    72    1
    93    75    73   ar
    94    76    77    1
    95     9     6    1
    96    19    21   am
    97    80    77    1
    98    80    81    1
    99     6     5    1
   100    37    32   am
   101    77    78    1
   102    83    81   ar
   103    83    85   ar
   104    73    72    1
   105    73    74   ar
   106    81    82   ar
   107    21    22    1
   108     4     3    2
   109    85    86   ar
   110    32    33    2
   111    32    31    1
   112     5     3   am
   113    82    84   ar
   114    78    79    2
   115    78    88   am
   116     3     2    1
   117    22    23    1
   118    22    25    1
   119    24    23    2
   120    23    30   am
   121    86    84   ar
   122    86    87    1
   123    30    31    1
   124    31    34    1
   125    88    89    1
   126    26    25    1
   127    26    27    1
   128    34    36    1
   129    34    35    1
   130     2     1    1
   131    94    92    1
   132    29    28    1
   133    89    92    1
   134    89    90    1
   135    27    28    1
   136    92    93    1
   137    90    91    2
   138    90    95   am
   139   101    95    1
   140   101   100    1
   141    95    96    1
   142   100    99    1
   143   127   125    1
   144    96    99    1
   145    96    97    1
   146   107   106    1
   147   117   118    1
   148   117   116    1
   149   119   118    2
   150   125   126    1
   151   125   124    1
   152   118   120   am
   153    97   102   am
   154    97    98    2
   155   102   103    1
   156   120   121    1
   157   106   103    1
   158   106   108    1
   159   112   111    2
   160   121   124    1
   161   121   122    1
   162   103   104    1
   163   109   110    1
   164   111   110    1
   165   114   113    1
   166   122   123    2
   167   105   104    2
   168   110   113    1
   169   113   115    1
