@<TRIPOS>MOLECULE
tmp/1nf4O00.pdb
 149 138 0 0 0
SMALL
GASTEIGER

@<TRIPOS>ATOM
      1  N         11.8010  140.6140  -65.6250 N.3    17  ARG17      -0.1245
      2  CA        10.5000  139.9750  -65.8550 C.3    17  ARG17       0.1563
      3  C          9.3780  141.0000  -65.8090 C.2    17  ARG17       0.2260
      4  O          8.4740  141.0140  -66.6380 O.2    17  ARG17      -0.2867
      5  CB        10.3180  138.8430  -64.8370 C.3    17  ARG17       0.0307
      6  CG         9.0640  138.0420  -65.0820 C.3    17  ARG17       0.0489
      7  CD         8.9580  136.8050  -64.2000 C.3    17  ARG17       0.2205
      8  NE         7.5280  136.5860  -63.9520 N.pl3  17  ARG17      -0.0865
      9  CZ         6.6660  136.0410  -64.7940 C.cat  17  ARG17       0.5346
     10  NH1        7.0690  135.6220  -65.9860 N.pl3  17  ARG17       0.1354
     11  NH2        5.3900  135.9150  -64.4360 N.pl3  17  ARG17       0.1354
     12  N          6.6010  141.9710  -68.6050 N.3    21  LEU21      -0.1245
     13  CA         5.1390  141.9470  -68.4800 C.3    21  LEU21       0.1561
     14  C          4.5300  143.2700  -68.9120 C.2    21  LEU21       0.2260
     15  O          3.4500  143.3380  -69.5040 O.2    21  LEU21      -0.2867
     16  CB         4.7530  141.5770  -67.0460 C.3    21  LEU21       0.0270
     17  CG         5.1790  140.1740  -66.5900 C.3    21  LEU21       0.0019
     18  CD1        4.8760  139.9980  -65.1060 C.3    21  LEU21       0.0001
     19  CD2        4.5070  139.0850  -67.4140 C.3    21  LEU21       0.0001
     20  N          4.6000  143.2870  -72.7510 N.3    24  ILE24      -0.1231
     21  CA         3.5400  142.4570  -73.3200 C.3    24  ILE24       0.1692
     22  C          2.2380  143.2330  -73.3980 C.2    24  ILE24       0.2592
     23  O          1.5550  143.3040  -74.4200 O.2    24  ILE24      -0.2718
     24  CB         3.3390  141.1820  -72.4870 C.3    24  ILE24       0.0266
     25  CG1        4.4900  140.1750  -72.6000 C.3    24  ILE24       0.0019
     26  CG2        2.0180  140.5030  -72.8200 C.3    24  ILE24       0.0020
     27  CD1        4.5120  139.1730  -71.4550 C.3    24  ILE24       0.0001
     28  N          1.8570  143.8600  -72.2860 N.am   25  HIS25      -0.1976
     29  CA         0.5890  144.5780  -72.3000 C.3    25  HIS25       0.1656
     30  C          0.6270  145.8200  -73.1790 C.2    25  HIS25       0.2291
     31  O         -0.3720  146.1180  -73.8330 O.2    25  HIS25      -0.2864
     32  CB         0.1970  144.9640  -70.8660 C.3    25  HIS25       0.0771
     33  CG        -0.2580  143.7620  -70.0940 C.ar   25  HIS25       0.0820
     34  ND1        0.6010  143.0440  -69.2920 N.ar   25  HIS25      -0.2267
     35  CD2       -1.4600  143.1470  -70.0050 C.ar   25  HIS25       0.1154
     36  CE1       -0.0580  142.0360  -68.7360 C.ar   25  HIS25       0.1986
     37  NE2       -1.3060  142.0790  -69.1530 N.ar   25  HIS25      -0.2212
     38  N          0.6260  144.6980  -76.9440 N.3    28  MET28      -0.1230
     39  CA        -0.6810  144.1630  -77.3290 C.3    28  MET28       0.1702
     40  C         -1.7260  145.2660  -77.3820 C.2    28  MET28       0.2592
     41  O         -2.6310  145.2580  -78.2250 O.2    28  MET28      -0.2718
     42  CB        -1.0940  143.0180  -76.3980 C.3    28  MET28       0.0401
     43  CG        -0.3330  141.7190  -76.6260 C.3    28  MET28       0.0596
     44  SD        -0.4010  141.1130  -78.3240 S.3    28  MET28      -0.1393
     45  CE        -2.1440  140.7820  -78.5420 C.3    28  MET28       0.0692
     46  N         -1.6500  146.2690  -76.5110 N.am   29  ASN29      -0.1974
     47  CA        -2.6380  147.3520  -76.6030 C.3    29  ASN29       0.1688
     48  C         -2.5520  148.0340  -77.9600 C.2    29  ASN29       0.2292
     49  O         -3.5430  148.3790  -78.6100 O.2    29  ASN29      -0.2864
     50  CB        -2.4140  148.3780  -75.4900 C.3    29  ASN29       0.1181
     51  CG        -3.4150  149.5220  -75.5530 C.2    29  ASN29       0.2629
     52  OD1       -4.5710  149.3770  -75.1650 O.2    29  ASN29      -0.2716
     53  ND2       -2.9500  150.6530  -76.0590 N.am   29  ASN29      -0.0877
     54  N         -4.0500  145.8820  -80.7270 N.3    32  TYR32      -0.1241
     55  CA        -5.4890  146.0660  -80.8480 C.3    32  TYR32       0.1605
     56  C         -5.8120  147.3450  -81.6130 C.2    32  TYR32       0.2264
     57  O         -6.7350  147.3510  -82.4340 O.2    32  TYR32      -0.2867
     58  CB        -6.1570  146.0830  -79.4610 C.3    32  TYR32       0.0534
     59  CG        -5.8890  144.7870  -78.7130 C.ar   32  TYR32      -0.0201
     60  CD1       -5.5080  144.8010  -77.3770 C.ar   32  TYR32      -0.0009
     61  CD2       -6.0160  143.5540  -79.3490 C.ar   32  TYR32      -0.0009
     62  CE1       -5.2660  143.6220  -76.6960 C.ar   32  TYR32       0.0417
     63  CE2       -5.7750  142.3660  -78.6750 C.ar   32  TYR32       0.0417
     64  CZ        -5.4020  142.4170  -77.3510 C.ar   32  TYR32       0.1957
     65  OH        -5.1510  141.2550  -76.6490 O.3    32  TYR32      -0.2866
     66  N          2.0900  142.0380  -82.5610 N.3    47  LYS47      -0.1245
     67  CA         1.7280  140.8710  -81.7620 C.3    47  LYS47       0.1561
     68  C          2.8820  139.8690  -81.7040 C.2    47  LYS47       0.2260
     69  O          3.1830  139.3330  -80.6310 O.2    47  LYS47      -0.2867
     70  CB         0.4680  140.2090  -82.3250 C.3    47  LYS47       0.0271
     71  CG         0.0240  138.9660  -81.5670 C.3    47  LYS47       0.0035
     72  CD        -1.3320  138.4760  -82.0560 C.3    47  LYS47       0.0206
     73  CE        -1.6720  137.1140  -81.4770 C.3    47  LYS47       0.1093
     74  NZ        -2.8720  136.5110  -82.1110 N.3    47  LYS47      -0.1314
     75  N          4.6990  138.3430  -78.3740 N.3    51  ILE51      -0.1245
     76  CA         4.9180  136.9200  -78.0740 C.3    51  ILE51       0.1561
     77  C          6.3730  136.6400  -77.7280 C.2    51  ILE51       0.2260
     78  O          6.6990  135.8360  -76.8420 O.2    51  ILE51      -0.2867
     79  CB         4.3720  136.0900  -79.2560 C.3    51  ILE51       0.0252
     80  CG1        2.8420  136.1420  -79.3060 C.3    51  ILE51       0.0019
     81  CG2        4.8800  134.6640  -79.2460 C.3    51  ILE51       0.0019
     82  CD1        2.1930  135.4490  -80.4680 C.3    51  ILE51       0.0001
     83  N          6.6710  137.5750  -74.2280 N.3    54  MET54      -0.1230
     84  CA         6.0660  136.5110  -73.4320 C.3    54  MET54       0.1702
     85  C          7.0780  135.3980  -73.1610 C.2    54  MET54       0.2592
     86  O          7.1890  134.8680  -72.0500 O.2    54  MET54      -0.2718
     87  CB         4.8500  135.9240  -74.1430 C.3    54  MET54       0.0401
     88  CG         3.7100  136.8970  -74.3810 C.3    54  MET54       0.0596
     89  SD         2.3620  136.1220  -75.2960 S.3    54  MET54      -0.1393
     90  CE         1.5200  137.5900  -75.8860 C.3    54  MET54       0.0692
     91  N          7.8160  135.0540  -74.2170 N.am   55  ARG55      -0.1980
     92  CA         8.8380  134.0120  -74.1260 C.3    55  ARG55       0.1597
     93  C          9.9760  134.4640  -73.2170 C.2    55  ARG55       0.2287
     94  O         10.5540  133.6870  -72.4670 O.2    55  ARG55      -0.2864
     95  CB         9.3360  133.6720  -75.5330 C.3    55  ARG55       0.0334
     96  CG        10.2580  132.4700  -75.6090 C.3    55  ARG55       0.0492
     97  CD        11.1730  132.5150  -76.8320 C.3    55  ARG55       0.2205
     98  NE        10.4480  132.9550  -78.0200 N.pl3  55  ARG55      -0.0865
     99  CZ        10.7200  134.0150  -78.7650 C.cat  55  ARG55       0.5346
    100  NH1       11.7420  134.8090  -78.4700 N.pl3  55  ARG55       0.1354
    101  NH2        9.9300  134.2530  -79.8080 N.pl3  55  ARG55       0.1354
    102  N          9.5440  136.5790  -70.7490 N.3    57  ALA57      -0.1231
    103  CA         8.9550  136.5250  -69.4090 C.3    57  ALA57       0.1694
    104  C          8.9990  135.0980  -68.8640 C.2    57  ALA57       0.2591
    105  O          9.3280  134.8610  -67.6930 O.2    57  ALA57      -0.2718
    106  CB         7.5490  137.0900  -69.4170 C.3    57  ALA57       0.0304
    107  N          8.6960  134.1180  -69.7080 N.am   58  GLU58      -0.1979
    108  CA         8.7320  132.7060  -69.3350 C.3    58  GLU58       0.1602
    109  C         10.1300  132.2280  -68.9780 C.2    58  GLU58       0.2287
    110  O         10.3140  131.5320  -67.9780 O.2    58  GLU58      -0.2864
    111  CB         8.1470  131.8720  -70.4850 C.3    58  GLU58       0.0415
    112  CG         8.1520  130.3760  -70.2460 C.3    58  GLU58       0.1163
    113  CD         7.5060  129.5870  -71.3750 C.2    58  GLU58       0.3649
    114  OE1        7.7410  129.9090  -72.5600 O.co2  58  GLU58      -0.2457
    115  OE2        6.7640  128.6290  -71.0790 O.co2  58  GLU58      -0.2457
    116  N         11.2380  133.5740  -65.6480 N.3    61  ALA61      -0.1245
    117  CA        10.5840  132.8560  -64.5560 C.3    61  ALA61       0.1562
    118  C         11.2010  131.4850  -64.3530 C.2    61  ALA61       0.2260
    119  O         11.3640  131.0090  -63.2200 O.2    61  ALA61      -0.2867
    120  CB         9.0840  132.7690  -64.7970 C.3    61  ALA61       0.0290
    121  N          4.5370  138.7330  -60.7810 N.3    73  THR73      -0.1218
    122  CA         3.3870  138.8020  -61.6620 C.3    73  THR73       0.1862
    123  C          2.8770  140.2370  -61.7580 C.2    73  THR73       0.2287
    124  O          1.7240  140.4610  -62.1240 O.2    73  THR73      -0.2866
    125  CB         2.2220  137.9220  -61.1770 C.3    73  THR73       0.1770
    126  OG1        1.7900  138.4100  -59.8930 O.3    73  THR73      -0.2211
    127  CG2        2.6540  136.4810  -60.9810 C.3    73  THR73       0.0375
    128  N         -0.8590  129.9250  -87.5650 N.3   163  THR163     -0.1218
    129  CA        -1.9010  129.0630  -87.0040 C.3   163  THR163      0.1862
    130  C         -2.1960  129.4930  -85.5680 C.2   163  THR163      0.2287
    131  O         -1.2890  129.9060  -84.8370 O.2   163  THR163     -0.2866
    132  CB        -1.5190  127.5750  -87.0410 C.3   163  THR163      0.1770
    133  OG1       -0.3330  127.3990  -86.2810 O.3   163  THR163     -0.2211
    134  CG2       -1.3250  127.0730  -88.4590 C.3   163  THR163      0.0375
    135  N         -3.0970  129.7860  -81.6110 N.3   165  SER165     -0.1202
    136  CA        -2.5760  129.3580  -80.3320 C.3   165  SER165      0.2020
    137  C         -2.9490  127.9180  -80.0110 C.2   165  SER165      0.2618
    138  O         -4.1150  127.6340  -79.7180 O.2   165  SER165     -0.2717
    139  CB        -3.1140  130.2370  -79.1970 C.3   165  SER165      0.2103
    140  OG        -4.5260  130.3730  -79.2970 O.3   165  SER165     -0.2182
    141  N         -1.9700  127.0140  -80.0490 N.am  166  LYS166     -0.1979
    142  CA        -2.3230  125.6710  -79.5660 C.3   166  LYS166      0.1596
    143  C         -2.5820  125.7760  -78.0620 C.2   166  LYS166      0.2287
    144  O         -1.7260  126.1870  -77.2870 O.2   166  LYS166     -0.2864
    145  CB        -1.2450  124.6600  -79.9210 C.3   166  LYS166      0.0298
    146  CG        -1.0270  124.4570  -81.4290 C.3   166  LYS166      0.0038
    147  CD        -2.2470  124.1020  -82.2760 C.3   166  LYS166      0.0206
    148  CE        -1.9120  123.6920  -83.7160 C.3   166  LYS166      0.1093
    149  NZ        -2.0520  124.7630  -84.7200 N.3   166  LYS166     -0.1314
@<TRIPOS>BOND
     1   134   132    1
     2   128   129    1
     3   132   129    1
     4   132   133    1
     5   129   130    1
     6   130   131    2
     7   149   148    1
     8   148   147    1
     9    66    67    1
    10    57    56    2
    11    70    67    1
    12    70    71    1
    13   147   146    1
    14    74    73    1
    15    72    71    1
    16    72    73    1
    17    67    68    1
    18    68    69    2
    19    56    55    1
    20   135   136    1
    21   146   145    1
    22    55    54    1
    23    55    58    1
    24    82    80    1
    25   136   137    1
    26   136   139    1
    27   141   137   am
    28   141   142    1
    29   137   138    2
    30   145   142    1
    31   101    99    1
    32   142   143    1
    33    58    59    1
    34    61    59   ar
    35    61    63   ar
    36    80    79    1
    37   140   139    1
    38    79    81    1
    39    79    76    1
    40    99   100    1
    41    99    98    2
    42    59    60   ar
    43    63    64   ar
    44    49    48    2
    45    45    44    1
    46    75    76    1
    47    44    43    1
    48    41    40    2
    49    76    77    1
    50   143   144    2
    51    98    97    1
    52    48    47    1
    53    77    78    2
    54    40    39    1
    55    40    46   am
    56    60    62   ar
    57    64    62   ar
    58    64    65    1
    59    39    38    1
    60    39    42    1
    61    97    96    1
    62    43    42    1
    63    47    46    1
    64    47    50    1
    65    53    51   am
    66    90    89    1
    67    96    95    1
    68    51    50    1
    69    51    52    2
    70    95    92    1
    71    89    88    1
    72    23    22    2
    73    88    87    1
    74    83    84    1
    75    91    92    1
    76    91    85   am
    77    87    84    1
    78    92    93    1
    79    31    30    2
    80    84    85    1
    81    22    21    1
    82    22    28   am
    83    21    20    1
    84    21    24    1
    85    93    94    2
    86    30    29    1
    87    85    86    2
    88    26    24    1
    89    25    24    1
    90    25    27    1
    91   114   113   ar
    92    29    28    1
    93    29    32    1
    94   113   115   ar
    95   113   112    1
    96    32    33    1
    97   102   103    1
    98   111   112    1
    99   111   108    1
   100    33    35   ar
   101    33    34   ar
   102    35    37   ar
   103   107   108    1
   104   107   104   am
   105    15    14    2
   106   106   103    1
   107   103   104    1
   108   108   109    1
   109    34    36   ar
   110    37    36   ar
   111   109   110    2
   112    14    13    1
   113   104   105    2
   114    12    13    1
   115    13    16    1
   116    19    17    1
   117    16    17    1
   118     4     3    2
   119    17    18    1
   120    10     9    1
   121     2     3    1
   122     2     1    1
   123     2     5    1
   124   116   117    1
   125     6     5    1
   126     6     7    1
   127   120   117    1
   128     9    11    1
   129     9     8    2
   130   117   118    1
   131   118   119    2
   132     7     8    1
   133   124   123    2
   134   123   122    1
   135   122   125    1
   136   122   121    1
   137   125   127    1
   138   125   126    1
