@<TRIPOS>MOLECULE
tmp/1nf5B00.pdb
 132 132 0 0 0
SMALL
GASTEIGER

@<TRIPOS>ATOM
      1  N         15.6160    2.0410   21.7710 N.3   149  LYS149     -0.1231
      2  CA        15.0070    0.8840   21.1060 C.3   149  LYS149      0.1693
      3  C         14.5000    1.1910   19.6920 C.2   149  LYS149      0.2592
      4  O         14.3400    0.2810   18.8750 O.2   149  LYS149     -0.2718
      5  CB        13.8330    0.3080   21.9090 C.3   149  LYS149      0.0285
      6  CG        13.3330   -1.0040   21.2920 C.3   149  LYS149      0.0035
      7  CD        12.0760   -1.5610   21.9320 C.3   149  LYS149      0.0206
      8  CE        11.7010   -2.8990   21.2740 C.3   149  LYS149      0.1093
      9  NZ        10.3700   -3.4400   21.7000 N.3   149  LYS149     -0.1314
     10  N         14.2300    2.4630   19.4090 N.am  150  PHE150     -0.1976
     11  CA        13.7330    2.8440   18.0990 C.3   150  PHE150      0.1639
     12  C         14.6750    3.8250   17.4390 C.2   150  PHE150      0.2290
     13  O         14.2640    4.6220   16.6030 O.2   150  PHE150     -0.2864
     14  CB        12.3370    3.4750   18.2040 C.3   150  PHE150      0.0560
     15  CG        11.3180    2.5950   18.8450 C.ar  150  PHE150     -0.0200
     16  CD1       10.6640    3.0010   20.0090 C.ar  150  PHE150     -0.0042
     17  CD2       10.9880    1.3620   18.2870 C.ar  150  PHE150     -0.0042
     18  CE1        9.7070    2.2000   20.6000 C.ar  150  PHE150     -0.0003
     19  CE2       10.0180    0.5420   18.8790 C.ar  150  PHE150     -0.0003
     20  CZ         9.3830    0.9620   20.0320 C.ar  150  PHE150     -0.0000
     21  N          8.5250    5.7910   16.7710 N.3   155  PRO155     -0.2102
     22  CA         8.2760    4.7200   15.7800 C.3   155  PRO155      0.1504
     23  C          7.1390    5.0130   14.8100 C.2   155  PRO155      0.2575
     24  O          7.1650    4.5950   13.6560 O.2   155  PRO155     -0.2718
     25  CB         8.0090    3.4960   16.6480 C.3   155  PRO155      0.0282
     26  CG         7.4050    4.1080   17.9210 C.3   155  PRO155      0.0208
     27  CD         8.2960    5.3010   18.1430 C.3   155  PRO155      0.0893
     28  N          6.1190    5.6880   15.3030 N.am  156  TYR156     -0.1977
     29  CA         4.9840    6.0970   14.4830 C.3   156  TYR156      0.1639
     30  C          4.2750    7.2190   15.2500 C.2   156  TYR156      0.2290
     31  O          4.3270    7.2660   16.4760 O.2   156  TYR156     -0.2864
     32  CB         4.0640    4.9080   14.1480 C.3   156  TYR156      0.0560
     33  CG         3.5140    4.1250   15.3120 C.ar  156  TYR156     -0.0198
     34  CD1        2.2090    4.3520   15.7890 C.ar  156  TYR156     -0.0009
     35  CD2        4.2890    3.1570   15.9400 C.ar  156  TYR156     -0.0009
     36  CE1        1.6920    3.6040   16.8800 C.ar  156  TYR156      0.0417
     37  CE2        3.8020    2.4150   17.0250 C.ar  156  TYR156      0.0417
     38  CZ         2.5150    2.6330   17.4870 C.ar  156  TYR156      0.1957
     39  OH         2.0600    1.8630   18.5250 O.3   156  TYR156     -0.2866
     40  N          1.9630    6.6500   18.3690 N.3   159  TYR159     -0.1241
     41  CA         2.5730    5.8930   19.4630 C.3   159  TYR159      0.1605
     42  C          2.4160    6.6010   20.8170 C.2   159  TYR159      0.2264
     43  O          2.8290    7.7330   20.9860 O.2   159  TYR159     -0.2867
     44  CB         4.0710    5.6610   19.1680 C.3   159  TYR159      0.0534
     45  CG         4.8050    4.9300   20.2620 C.ar  159  TYR159     -0.0201
     46  CD1        4.4140    3.6580   20.6550 C.ar  159  TYR159     -0.0009
     47  CD2        5.8870    5.5140   20.9120 C.ar  159  TYR159     -0.0009
     48  CE1        5.0800    2.9770   21.6710 C.ar  159  TYR159      0.0417
     49  CE2        6.5730    4.8350   21.9380 C.ar  159  TYR159      0.0417
     50  CZ         6.1590    3.5730   22.3060 C.ar  159  TYR159      0.1957
     51  OH         6.8190    2.8870   23.3010 O.3   159  TYR159     -0.2866
     52  N          3.0560    4.6670   23.8030 N.3   161  GLY161     -0.1225
     53  CA         3.5530    3.6550   24.7210 C.3   161  GLY161      0.1811
     54  C          4.7440    4.1500   25.5200 C.2   161  GLY161      0.2280
     55  O          5.2050    5.2890   25.3100 O.2   161  GLY161     -0.2866
     56  N          1.2570   -8.9220   25.3260 N.3   184  TRP184     -0.1227
     57  CA         1.8690   -7.7650   24.6990 C.3   184  TRP184      0.1737
     58  C          1.1620   -7.1190   23.5060 C.2   184  TRP184      0.2596
     59  O          0.5560   -7.8000   22.6590 O.2   184  TRP184     -0.2718
     60  CB         3.2730   -8.1500   24.2760 C.3   184  TRP184      0.0564
     61  CG         4.0280   -7.0340   23.7200 C.ar  184  TRP184      0.0003
     62  CD1        4.8240   -6.1610   24.4070 C.ar  184  TRP184      0.0946
     63  CD2        4.0500   -6.6180   22.3560 C.ar  184  TRP184      0.0152
     64  NE1        5.3400   -5.2310   23.5540 N.ar  184  TRP184     -0.2442
     65  CE2        4.8790   -5.4820   22.2840 C.ar  184  TRP184      0.0810
     66  CE3        3.4430   -7.0930   21.1830 C.ar  184  TRP184      0.0012
     67  CZ2        5.1240   -4.7990   21.0720 C.ar  184  TRP184      0.0191
     68  CZ3        3.6870   -6.4090   19.9660 C.ar  184  TRP184      0.0001
     69  CH2        4.5170   -5.2790   19.9290 C.ar  184  TRP184      0.0015
     70  N          1.2430   -5.7920   23.4570 N.am  185  GLY185     -0.1942
     71  CA         0.7080   -5.0280   22.3380 C.3   185  GLY185      0.2014
     72  C         -0.7100   -4.5020   22.2320 C.2   185  GLY185      0.2639
     73  O         -1.6820   -5.1100   22.6950 O.2   185  GLY185     -0.2714
     74  N         -0.8100   -3.3400   21.6030 N.am  186  GLY186     -0.1939
     75  CA        -2.1030   -2.7420   21.3480 C.3   186  GLY186      0.2014
     76  C         -2.8030   -1.9010   22.3940 C.2   186  GLY186      0.2639
     77  O         -3.5440   -0.9890   22.0160 O.2   186  GLY186     -0.2714
     78  N         -2.5960   -2.1710   23.6830 N.am  187  GLU187     -0.1963
     79  CA        -3.3230   -1.4140   24.7080 C.3   187  GLU187      0.1733
     80  C         -3.0020    0.0680   24.6770 C.2   187  GLU187      0.2616
     81  O         -3.8640    0.9120   24.9470 O.2   187  GLU187     -0.2715
     82  CB        -3.0710   -1.9950   26.1140 C.3   187  GLU187      0.0429
     83  CG        -1.8970   -1.3750   26.8650 C.3   187  GLU187      0.1163
     84  CD        -0.5540   -1.7170   26.2760 C.2   187  GLU187      0.3649
     85  OE1        0.3910   -0.9690   26.5740 O.co2 187  GLU187     -0.2457
     86  OE2       -0.4210   -2.7320   25.5370 O.co2 187  GLU187     -0.2457
     87  N         -1.7630    0.3930   24.3360 N.am  188  ASP188     -0.1957
     88  CA        -1.3870    1.7780   24.2420 C.3   188  ASP188      0.1840
     89  C         -1.9960    2.4020   22.9820 C.2   188  ASP188      0.2622
     90  O         -2.2570    3.6090   22.9530 O.2   188  ASP188     -0.2715
     91  CB         0.1470    1.9130   24.2860 C.3   188  ASP188      0.1450
     92  CG         0.8870    0.9600   23.3090 C.2   188  ASP188      0.3671
     93  OD1        0.3940   -0.1450   23.0080 O.co2 188  ASP188     -0.2456
     94  OD2        1.9960    1.3270   22.8690 O.co2 188  ASP188     -0.2456
     95  N         -2.2440    1.5970   21.9460 N.am  189  ASP189     -0.1971
     96  CA        -2.8550    2.1310   20.7250 C.3   189  ASP189      0.1709
     97  C         -4.3250    2.3790   21.0100 C.2   189  ASP189      0.2293
     98  O         -4.9170    3.3320   20.4970 O.2   189  ASP189     -0.2864
     99  CB        -2.6800    1.1500   19.5720 C.3   189  ASP189      0.1436
    100  CG        -1.2220    0.9480   19.2230 C.2   189  ASP189      0.3671
    101  OD1       -0.5340    1.9510   18.9600 O.co2 189  ASP189     -0.2456
    102  OD2       -0.7670   -0.2060   19.2310 O.co2 189  ASP189     -0.2456
    103  N         -5.0960   -8.3490   19.4180 N.3   229  ARG229     -0.1231
    104  CA        -4.8620   -6.9330   19.5820 C.3   229  ARG229      0.1694
    105  C         -5.3800   -6.0710   18.4610 C.2   229  ARG229      0.2592
    106  O         -6.0040   -5.0490   18.7120 O.2   229  ARG229     -0.2718
    107  CB        -3.3870   -6.6410   19.8770 C.3   229  ARG229      0.0321
    108  CG        -2.4350   -6.6300   18.7100 C.3   229  ARG229      0.0489
    109  CD        -1.0160   -6.5960   19.2800 C.3   229  ARG229      0.2205
    110  NE        -0.1020   -5.6860   18.5990 N.pl3 229  ARG229     -0.0865
    111  CZ         0.7260   -6.0280   17.6210 C.cat 229  ARG229      0.5346
    112  NH1        0.7510   -7.2920   17.1990 N.pl3 229  ARG229      0.1354
    113  NH2        1.5370   -5.1080   17.0840 N.pl3 229  ARG229      0.1354
    114  N         -5.1790   -6.4870   17.2230 N.am  230  PHE230     -0.1976
    115  CA        -5.6300   -5.6590   16.1090 C.3   230  PHE230      0.1639
    116  C         -7.1390   -5.4930   16.0220 C.2   230  PHE230      0.2290
    117  O         -7.6160   -4.3890   15.7360 O.2   230  PHE230     -0.2864
    118  CB        -5.0150   -6.1740   14.7940 C.3   230  PHE230      0.0560
    119  CG        -3.5230   -6.0020   14.7470 C.ar  230  PHE230     -0.0200
    120  CD1       -2.6930   -7.0770   14.5050 C.ar  230  PHE230     -0.0042
    121  CD2       -2.9480   -4.7560   15.0150 C.ar  230  PHE230     -0.0042
    122  CE1       -1.3180   -6.9260   14.5350 C.ar  230  PHE230     -0.0003
    123  CE2       -1.5730   -4.5940   15.0470 C.ar  230  PHE230     -0.0003
    124  CZ        -0.7500   -5.6850   14.8090 C.ar  230  PHE230     -0.0000
    125  N         -8.1070   -3.0280   18.8420 N.3   233  ILE233     -0.1245
    126  CA        -7.7460   -1.6600   18.4960 C.3   233  ILE233      0.1561
    127  C         -8.7400   -1.0600   17.5060 C.2   233  ILE233      0.2260
    128  O         -9.0680    0.1260   17.5670 O.2   233  ILE233     -0.2867
    129  CB        -6.3160   -1.6010   17.8670 C.3   233  ILE233      0.0252
    130  CG1       -5.2520   -1.9120   18.9210 C.3   233  ILE233      0.0019
    131  CG2       -6.0740   -0.2500   17.2610 C.3   233  ILE233      0.0019
    132  CD1       -3.8920   -2.1830   18.3270 C.3   233  ILE233      0.0001
@<TRIPOS>BOND
     1    24    23    2
     2    32    29    1
     3    32    33    1
     4    29    30    1
     5    29    28    1
     6   120   122   ar
     7   120   119   ar
     8   122   124   ar
     9   119   118    1
    10   119   121   ar
    11   118   115    1
    12   124   123   ar
    13    23    28   am
    14    23    22    1
    15   121   123   ar
    16    30    31    2
    17    33    34   ar
    18    33    35   ar
    19   117   116    2
    20    22    25    1
    21    22    21    1
    22    34    36   ar
    23    35    37   ar
    24   116   115    1
    25   115   114    1
    26    13    12    2
    27    25    26    1
    28    21    27    1
    29    36    38   ar
    30    37    38   ar
    31   113   111    1
    32   112   111    1
    33   114   105   am
    34   131   129    1
    35    12    11    1
    36    38    39    1
    37   127   128    2
    38   127   126    1
    39   111   110    2
    40   129   126    1
    41   129   130    1
    42    26    27    1
    43    11    14    1
    44    11    10    1
    45    14    15    1
    46    17    15   ar
    47    17    19   ar
    48   132   130    1
    49    40    41    1
    50   105   106    2
    51   105   104    1
    52   126   125    1
    53   110   109    1
    54   108   109    1
    55   108   107    1
    56    15    16   ar
    57     4     3    2
    58    19    20   ar
    59   101   100   ar
    60    44    41    1
    61    44    45    1
    62   100   102   ar
    63   100    99    1
    64    10     3   am
    65   103   104    1
    66    41    42    1
    67    99    96    1
    68   104   107    1
    69     3     2    1
    70    69    68   ar
    71    69    67   ar
    72    68    66   ar
    73    16    18   ar
    74    20    18   ar
    75    45    46   ar
    76    45    47   ar
    77    98    97    2
    78    46    48   ar
    79    96    97    1
    80    96    95    1
    81    42    43    2
    82    47    49   ar
    83    67    65   ar
    84     2     1    1
    85     2     5    1
    86    66    63   ar
    87     8     9    1
    88     8     7    1
    89     6     5    1
    90     6     7    1
    91    75    74    1
    92    75    76    1
    93    74    72   am
    94    48    50   ar
    95    49    50   ar
    96    95    89   am
    97    77    76    2
    98    72    71    1
    99    72    73    2
   100    65    63   ar
   101    65    64   ar
   102    50    51    1
   103    71    70    1
   104    63    61   ar
   105    76    78   am
   106    59    58    2
   107    94    92   ar
   108    90    89    2
   109    89    88    1
   110    93    92   ar
   111    92    91    1
   112    70    58   am
   113    58    57    1
   114    64    62   ar
   115    78    79    1
   116    61    60    1
   117    61    62   ar
   118    52    53    1
   119    88    91    1
   120    88    87    1
   121    60    57    1
   122    87    80   am
   123    80    79    1
   124    80    81    2
   125    57    56    1
   126    79    82    1
   127    53    54    1
   128    55    54    2
   129    86    84   ar
   130    82    83    1
   131    84    85   ar
   132    84    83    1
