@<TRIPOS>MOLECULE
tmp/1nf6F00.pdb
 161 150 0 0 0
SMALL
GASTEIGER

@<TRIPOS>ATOM
      1  N        -33.7660  112.8810  -71.4680 N.3    19  ARG19      -0.1245
      2  CA       -33.1090  111.5870  -71.6700 C.3    19  ARG19       0.1563
      3  C        -34.1410  110.4720  -71.7540 C.2    19  ARG19       0.2260
      4  O        -34.0000  109.5420  -72.5460 O.2    19  ARG19      -0.2867
      5  CB       -32.0870  111.3400  -70.5650 C.3    19  ARG19       0.0307
      6  CG       -31.3660  110.0040  -70.6720 C.3    19  ARG19       0.0489
      7  CD       -30.4920  109.7810  -69.4580 C.3    19  ARG19       0.2205
      8  NE       -30.2900  108.3750  -69.1340 N.pl3  19  ARG19      -0.0865
      9  CZ       -29.6220  107.5110  -69.8830 C.cat  19  ARG19       0.5346
     10  NH1      -29.0810  107.9100  -71.0260 N.pl3  19  ARG19       0.1354
     11  NH2      -29.4950  106.2480  -69.4910 N.pl3  19  ARG19       0.1354
     12  N        -34.6080  107.6560  -74.8130 N.3    23  LEU23      -0.1245
     13  CA       -34.7110  106.2250  -74.5480 C.3    23  LEU23       0.1561
     14  C        -35.9710  105.6640  -75.1820 C.2    23  LEU23       0.2260
     15  O        -35.9950  104.5570  -75.7090 O.2    23  LEU23      -0.2867
     16  CB       -34.7130  105.9280  -73.0470 C.3    23  LEU23       0.0270
     17  CG       -33.4060  106.1770  -72.2940 C.3    23  LEU23       0.0019
     18  CD1      -33.5730  105.8690  -70.8110 C.3    23  LEU23       0.0001
     19  CD2      -32.2660  105.3540  -72.8760 C.3    23  LEU23       0.0001
     20  N        -35.3650  105.6690  -79.0770 N.3    26  ILE26      -0.1231
     21  CA       -34.4760  104.5900  -79.5110 C.3    26  ILE26       0.1692
     22  C        -35.2340  103.2870  -79.7130 C.2    26  ILE26       0.2592
     23  O        -35.1460  102.6040  -80.7420 O.2    26  ILE26      -0.2718
     24  CB       -33.3440  104.3930  -78.4860 C.3    26  ILE26       0.0266
     25  CG1      -32.4190  105.6050  -78.3840 C.3    26  ILE26       0.0019
     26  CG2      -32.5730  103.1110  -78.7800 C.3    26  ILE26       0.0020
     27  CD1      -31.4840  105.6040  -77.1980 C.3    26  ILE26       0.0001
     28  N        -36.0210  102.9160  -78.7030 N.am   27  HIS27      -0.1976
     29  CA       -36.8060  101.6900  -78.8060 C.3    27  HIS27       0.1656
     30  C        -37.8820  101.8010  -79.8660 C.2    27  HIS27       0.2291
     31  O        -38.1450  100.8730  -80.6310 O.2    27  HIS27      -0.2864
     32  CB       -37.4300  101.3760  -77.4460 C.3    27  HIS27       0.0771
     33  CG       -36.4210  100.9510  -76.4250 C.ar   27  HIS27       0.0820
     34  ND1      -35.7450  101.8540  -75.6320 N.ar   27  HIS27      -0.2267
     35  CD2      -35.9800   99.7280  -76.0620 C.ar   27  HIS27       0.1154
     36  CE1      -34.9260  101.2100  -74.8200 C.ar   27  HIS27       0.1986
     37  NE2      -35.0520   99.9180  -75.0650 N.ar   27  HIS27      -0.2212
     38  N        -36.1330  101.8490  -83.4190 N.3    30  MET30      -0.1230
     39  CA       -35.5270  100.5510  -83.7370 C.3    30  MET30       0.1702
     40  C        -36.5900   99.4960  -83.9890 C.2    30  MET30       0.2592
     41  O        -36.3970   98.5780  -84.7850 O.2    30  MET30      -0.2718
     42  CB       -34.5750  100.1280  -82.6200 C.3    30  MET30       0.0401
     43  CG       -33.2120  100.8150  -82.7280 C.3    30  MET30       0.0596
     44  SD       -32.5290  100.7340  -84.4000 S.3    30  MET30      -0.1393
     45  CE       -31.7490   99.1230  -84.3590 C.3    30  MET30       0.0692
     46  N        -37.7390   99.6100  -83.3350 N.am   31  ASN31      -0.1974
     47  CA       -38.8300   98.6750  -83.6130 C.3    31  ASN31       0.1688
     48  C        -39.3120   98.8420  -85.0480 C.2    31  ASN31       0.2292
     49  O        -39.5790   97.8680  -85.7540 O.2    31  ASN31      -0.2864
     50  CB       -39.9840   98.8940  -82.6370 C.3    31  ASN31       0.1181
     51  CG       -41.1840   98.0010  -82.8860 C.2    31  ASN31       0.2629
     52  OD1      -42.1180   98.3520  -83.6050 O.2    31  ASN31      -0.2716
     53  ND2      -41.1620   96.8190  -82.2740 N.am   31  ASN31      -0.0877
     54  N        -36.9600   97.2830  -87.4800 N.3    34  TYR34      -0.1241
     55  CA       -37.0320   95.8220  -87.5940 C.3    34  TYR34       0.1605
     56  C        -38.1140   95.4170  -88.5880 C.2    34  TYR34       0.2264
     57  O        -37.9340   94.4830  -89.3650 O.2    34  TYR34      -0.2867
     58  CB       -37.2470   95.1730  -86.2210 C.3    34  TYR34       0.0534
     59  CG       -36.0770   95.4180  -85.2840 C.ar   34  TYR34      -0.0201
     60  CD1      -36.2840   95.8180  -83.9720 C.ar   34  TYR34      -0.0009
     61  CD2      -34.7580   95.2630  -85.6970 C.ar   34  TYR34      -0.0009
     62  CE1      -35.2330   96.0460  -83.1060 C.ar   34  TYR34       0.0417
     63  CE2      -33.6920   95.4890  -84.8410 C.ar   34  TYR34       0.0417
     64  CZ       -33.9380   95.8810  -83.5460 C.ar   34  TYR34       0.1957
     65  OH       -32.9010   96.1210  -82.6720 O.3    34  TYR34      -0.2866
     66  N        -32.5510  103.3660  -88.5930 N.3    49  LYS49      -0.1245
     67  CA       -31.5860  102.9220  -87.5910 C.3    49  LYS49       0.1561
     68  C        -30.5820  104.0290  -87.2840 C.2    49  LYS49       0.2260
     69  O        -30.2050  104.2260  -86.1310 O.2    49  LYS49      -0.2867
     70  CB       -30.8500  101.6630  -88.0580 C.3    49  LYS49       0.0271
     71  CG       -29.5870  101.3440  -87.2740 C.3    49  LYS49       0.0035
     72  CD       -29.0190  100.0060  -87.7140 C.3    49  LYS49       0.0206
     73  CE       -27.8750   99.5410  -86.8220 C.3    49  LYS49       0.1093
     74  NZ       -27.2670   98.2790  -87.3360 N.3    49  LYS49      -0.1314
     75  N        -29.6600  105.9060  -83.8950 N.3    53  ILE53      -0.1245
     76  CA       -28.3130  106.0490  -83.3330 C.3    53  ILE53       0.1561
     77  C        -28.0500  107.5080  -82.9730 C.2    53  ILE53       0.2260
     78  O        -27.2890  107.7660  -82.0400 O.2    53  ILE53      -0.2867
     79  CB       -27.2390  105.4980  -84.2840 C.3    53  ILE53       0.0252
     80  CG1      -27.2540  103.9730  -84.4290 C.3    53  ILE53       0.0019
     81  CG2      -25.8360  105.9380  -83.8830 C.3    53  ILE53       0.0019
     82  CD1      -26.5610  103.4810  -85.6800 C.3    53  ILE53       0.0001
     83  N        -29.5990  107.8400  -79.6200 N.3    56  MET56      -0.1230
     84  CA       -28.6230  107.1730  -78.7770 C.3    56  MET56       0.1702
     85  C        -27.5650  108.1500  -78.2690 C.2    56  MET56       0.2592
     86  O        -27.2000  108.1360  -77.0920 O.2    56  MET56      -0.2718
     87  CB       -27.9370  106.0360  -79.5480 C.3    56  MET56       0.0401
     88  CG       -28.8550  104.8670  -79.8500 C.3    56  MET56       0.0596
     89  SD       -28.0060  103.4010  -80.4710 S.3    56  MET56      -0.1393
     90  CE       -29.3080  102.7200  -81.4990 C.3    56  MET56       0.0692
     91  N        -27.0680  108.9900  -79.1710 N.am   57  ARG57      -0.1980
     92  CA       -26.0540  109.9940  -78.8590 C.3    57  ARG57       0.1597
     93  C        -26.6380  111.1020  -77.9940 C.2    57  ARG57       0.2287
     94  O        -26.0490  111.6220  -77.0530 O.2    57  ARG57      -0.2864
     95  CB       -25.4970  110.5870  -80.1470 C.3    57  ARG57       0.0334
     96  CG       -24.2360  109.9520  -80.6850 C.3    57  ARG57       0.0492
     97  CD       -23.6510  110.7340  -81.8520 C.3    57  ARG57       0.2205
     98  NE       -24.6590  111.1340  -82.8420 N.pl3  57  ARG57      -0.0865
     99  CZ       -25.1440  112.3750  -82.8890 C.cat  57  ARG57       0.5346
    100  NH1      -24.6910  113.2640  -82.0070 N.pl3  57  ARG57       0.1354
    101  NH2      -26.0520  112.7330  -83.7820 N.pl3  57  ARG57       0.1354
    102  N        -29.2140  110.7580  -75.9180 N.3    59  ALA59      -0.1231
    103  CA       -29.3650  110.1310  -74.6080 C.3    59  ALA59       0.1694
    104  C        -28.0570  110.1820  -73.8290 C.2    59  ALA59       0.2591
    105  O        -28.0520  110.4800  -72.6340 O.2    59  ALA59      -0.2718
    106  CB       -29.8420  108.6890  -74.7290 C.3    59  ALA59       0.0304
    107  N        -26.9650  109.8800  -74.5220 N.am   60  GLU60      -0.1979
    108  CA       -25.6380  109.8140  -73.9040 C.3    60  GLU60       0.1602
    109  C        -25.1650  111.1950  -73.4940 C.2    60  GLU60       0.2287
    110  O        -24.6430  111.4260  -72.4040 O.2    60  GLU60      -0.2864
    111  CB       -24.6470  109.1670  -74.8680 C.3    60  GLU60       0.0415
    112  CG       -23.2000  109.1810  -74.4000 C.3    60  GLU60       0.1163
    113  CD       -22.2570  108.5180  -75.3850 C.2    60  GLU60       0.3649
    114  OE1      -22.5210  108.5780  -76.6020 O.co2  60  GLU60      -0.2457
    115  OE2      -21.2450  107.9290  -74.9470 O.co2  60  GLU60      -0.2457
    116  N        -27.0660  112.0560  -70.4230 N.3    63  ALA63      -0.1245
    117  CA       -26.4790  111.3620  -69.2810 C.3    63  ALA63       0.1562
    118  C        -25.1810  111.9930  -68.8040 C.2    63  ALA63       0.2260
    119  O        -24.9490  112.1230  -67.6020 O.2    63  ALA63      -0.2867
    120  CB       -26.2410  109.8970  -69.6380 C.3    63  ALA63       0.0290
    121  N        -32.9150  105.5800  -66.2500 N.3    75  THR75      -0.1218
    122  CA       -32.8200  104.3510  -67.0220 C.3    75  THR75       0.1862
    123  C        -34.1570  103.9150  -67.6130 C.2    75  THR75       0.2287
    124  O        -34.3320  102.7870  -68.0780 O.2    75  THR75      -0.2866
    125  CB       -32.2950  103.1670  -66.1820 C.3    75  THR75       0.1770
    126  OG1      -33.2390  102.8380  -65.1550 O.3    75  THR75      -0.2211
    127  CG2      -31.0010  103.5380  -65.4720 C.3    75  THR75       0.0375
    128  N        -25.8670  100.2440  -92.9000 N.3   163  THR163     -0.1218
    129  CA       -25.6080  101.5340  -92.2690 C.3   163  THR163      0.1862
    130  C        -24.0950  101.7000  -92.1130 C.2   163  THR163      0.2287
    131  O        -23.5950  102.6320  -91.4870 O.2   163  THR163     -0.2866
    132  CB       -26.2910  101.7300  -90.9030 C.3   163  THR163      0.1770
    133  OG1      -25.9510  100.6590  -90.0130 O.3   163  THR163     -0.2211
    134  CG2      -27.8060  101.7190  -91.0600 C.3   163  THR163      0.0375
    135  N        -20.0530   99.7310  -91.7030 N.3   165  THR165     -0.1203
    136  CA       -19.3130   98.6830  -91.0090 C.3   165  THR165      0.1994
    137  C        -19.9190   98.4630  -89.6300 C.2   165  THR165      0.2618
    138  O        -20.5280   99.3610  -89.0490 O.2   165  THR165     -0.2717
    139  CB       -17.8150   99.0250  -90.9100 C.3   165  THR165      0.1784
    140  OG1      -17.1180   97.9430  -90.2690 O.3   165  THR165     -0.2211
    141  CG2      -17.5860  100.2580  -90.0540 C.3   165  THR165      0.0376
    142  N        -19.7680   97.2550  -89.1000 N.am  166  ALA166     -0.1965
    143  CA       -20.3530   96.9550  -87.8020 C.3   166  ALA166      0.1728
    144  C        -19.7200   97.7770  -86.6760 C.2   166  ALA166      0.2617
    145  O        -18.5340   98.0980  -86.6910 O.2   166  ALA166     -0.2715
    146  CB       -20.2310   95.4700  -87.4850 C.3   166  ALA166      0.0334
    147  N        -20.5820   98.0800  -85.7200 N.am  167  SER167     -0.1936
    148  CA       -20.3480   98.6420  -84.4140 C.3   167  SER167      0.2055
    149  C        -18.9830   98.2870  -83.8470 C.2   167  SER167      0.2642
    150  O        -18.7370   97.1170  -83.5290 O.2   167  SER167     -0.2714
    151  CB       -21.4140   98.1180  -83.4310 C.3   167  SER167      0.2130
    152  OG       -21.4670   96.6990  -83.4490 O.3   167  SER167     -0.2179
    153  N        -18.0800   99.2610  -83.6910 N.am  168  LYS168     -0.1977
    154  CA       -16.8350   98.8460  -83.0270 C.3   168  LYS168      0.1596
    155  C        -17.1690   98.5390  -81.5670 C.2   168  LYS168      0.2287
    156  O        -17.5320   99.4290  -80.8030 O.2   168  LYS168     -0.2864
    157  CB       -15.7300   99.8770  -83.1590 C.3   168  LYS168      0.0298
    158  CG       -15.2590  100.2670  -84.5560 C.3   168  LYS168      0.0038
    159  CD       -14.6610   99.0350  -85.1320 C.3   168  LYS168      0.0206
    160  CE       -14.4320   99.5070  -86.5890 C.3   168  LYS168      0.1093
    161  NZ       -14.6310   98.3400  -87.4620 N.3   168  LYS168     -0.1314
@<TRIPOS>BOND
     1   128   129    1
     2   129   130    1
     3   129   132    1
     4   130   131    2
     5   135   136    1
     6   134   132    1
     7   136   139    1
     8   136   137    1
     9   139   140    1
    10   139   141    1
    11   132   133    1
    12   137   142   am
    13   137   138    2
    14    57    56    2
    15   142   143    1
    16    66    67    1
    17    56    55    1
    18    70    67    1
    19    70    71    1
    20   143   146    1
    21   143   144    1
    22    72    71    1
    23    72    73    1
    24    55    54    1
    25    55    58    1
    26    67    68    1
    27   161   160    1
    28    74    73    1
    29    68    69    2
    30   145   144    2
    31   144   147   am
    32   160   159    1
    33    58    59    1
    34    49    48    2
    35   147   148    1
    36    61    59   ar
    37    61    63   ar
    38    82    80    1
    39    59    60   ar
    40   159   158    1
    41    48    47    1
    42    63    64   ar
    43    41    40    2
    44   158   157    1
    45    80    79    1
    46   148   149    1
    47   148   151    1
    48    44    45    1
    49    44    43    1
    50    79    81    1
    51    79    76    1
    52    40    39    1
    53    40    46   am
    54    60    62   ar
    55    75    76    1
    56   149   153   am
    57   149   150    2
    58   101    99    1
    59    39    38    1
    60    39    42    1
    61   153   154    1
    62    47    46    1
    63    47    50    1
    64    52    51    2
    65    64    62   ar
    66    64    65    1
    67   152   151    1
    68    76    77    1
    69   157   154    1
    70   154   155    1
    71    77    78    2
    72    99    98    2
    73    99   100    1
    74    51    50    1
    75    51    53   am
    76    98    97    1
    77    43    42    1
    78    97    96    1
    79   155   156    2
    80    90    89    1
    81    23    22    2
    82    96    95    1
    83    31    30    2
    84    89    88    1
    85    95    92    1
    86    30    29    1
    87    88    87    1
    88    22    21    1
    89    22    28   am
    90    83    84    1
    91    87    84    1
    92    21    20    1
    93    21    24    1
    94    91    92    1
    95    91    85   am
    96    92    93    1
    97    29    28    1
    98    29    32    1
    99    26    24    1
   100    84    85    1
   101    24    25    1
   102    25    27    1
   103    85    86    2
   104    93    94    2
   105    32    33    1
   106   114   113   ar
   107    33    35   ar
   108    33    34   ar
   109    35    37   ar
   110   102   103    1
   111    15    14    2
   112    34    36   ar
   113   113   115   ar
   114   113   112    1
   115    14    13    1
   116    37    36   ar
   117   111   112    1
   118   111   108    1
   119    12    13    1
   120   106   103    1
   121   103   104    1
   122    13    16    1
   123   107   108    1
   124   107   104   am
   125   108   109    1
   126   104   105    2
   127   109   110    2
   128    16    17    1
   129    19    17    1
   130     4     3    2
   131    17    18    1
   132     3     2    1
   133     2     1    1
   134     2     5    1
   135    10     9    1
   136     6     5    1
   137     6     7    1
   138   116   117    1
   139     9    11    1
   140     9     8    2
   141   120   117    1
   142     7     8    1
   143   117   118    1
   144   118   119    2
   145   124   123    2
   146   123   122    1
   147   122   121    1
   148   122   125    1
   149   125   127    1
   150   125   126    1
