@<TRIPOS>MOLECULE
tmp/1nf7B00.pdb
 188 179 0 0 0
SMALL
GASTEIGER

@<TRIPOS>ATOM
      1  N        103.1180   79.6100   54.3180 N.3    59  SER59      -0.1203
      2  CA       102.7300   80.9760   53.9930 C.3    59  SER59       0.2005
      3  C        103.3800   82.0550   54.8230 C.2    59  SER59       0.2461
      4  O        103.7190   81.8430   55.9810 O.2    59  SER59      -0.2732
      5  CB       101.2190   81.1500   54.0900 C.3    59  SER59       0.2103
      6  OG       100.6570   81.2180   52.7970 O.3    59  SER59      -0.2182
      7  N        103.5570   83.2440   54.2300 N.am   60  PRO60      -0.2717
      8  CA       104.1630   84.3760   54.9060 C.3    60  PRO60       0.1535
      9  C        103.1690   85.0850   55.7990 C.2    60  PRO60       0.2598
     10  O        102.8270   86.2310   55.5530 O.2    60  PRO60      -0.2715
     11  CB       104.6180   85.2470   53.7530 C.3    60  PRO60       0.0310
     12  CG       103.5650   85.0390   52.7760 C.3    60  PRO60       0.0237
     13  CD       103.3910   83.5450   52.8010 C.3    60  PRO60       0.0939
     14  N        102.7050   84.3990   56.8380 N.am   61  MET61      -0.1978
     15  CA       101.7730   84.9790   57.7900 C.3    61  MET61       0.1605
     16  C        102.3740   84.9090   59.1910 C.2    61  MET61       0.2287
     17  O        103.0250   83.9250   59.5560 O.2    61  MET61      -0.2864
     18  CB       100.4530   84.2400   57.7440 C.3    61  MET61       0.0413
     19  CG        99.7500   84.3710   56.4260 C.3    61  MET61       0.0598
     20  SD        98.4420   83.2070   56.3390 S.3    61  MET61      -0.1393
     21  CE        97.2080   84.0550   57.3430 C.3    61  MET61       0.0692
     22  N        103.5410   90.7240   48.6070 N.3   230  ASP230     -0.1239
     23  CA       102.2920   90.5070   49.3330 C.3   230  ASP230      0.1674
     24  C        101.1580   91.4450   48.9420 C.2   230  ASP230      0.2266
     25  O        101.1060   92.5940   49.3830 O.2   230  ASP230     -0.2867
     26  CB       102.5620   90.6200   50.8410 C.3   230  ASP230      0.1410
     27  CG       101.8120   89.5830   51.6450 C.2   230  ASP230      0.3668
     28  OD1      101.5650   88.4860   51.0990 O.co2 230  ASP230     -0.2456
     29  OD2      101.4820   89.8660   52.8200 O.co2 230  ASP230     -0.2456
     30  N         99.6210   88.0950   44.3270 N.3   259  ASN259     -0.1240
     31  CA        98.5060   87.1950   44.0540 C.3   259  ASN259      0.1653
     32  C         97.5940   87.5810   42.9090 C.2   259  ASN259      0.2266
     33  O         96.9890   88.6400   42.9330 O.2   259  ASN259     -0.2867
     34  CB        97.7000   87.0150   45.3240 C.3   259  ASN259      0.1155
     35  CG        98.4770   86.2630   46.3820 C.2   259  ASN259      0.2627
     36  OD1       99.5790   86.6900   46.8040 O.2   259  ASN259     -0.2716
     37  ND2       97.9250   85.1170   46.8100 N.am  259  ASN259     -0.0877
     38  N        101.8970   83.7920   42.2960 N.3   278  ARG278     -0.1245
     39  CA       101.1340   83.3680   43.4750 C.3   278  ARG278      0.1563
     40  C         99.6600   83.4470   43.1150 C.2   278  ARG278      0.2260
     41  O         99.0680   84.5160   43.2120 O.2   278  ARG278     -0.2867
     42  CB       101.3720   84.3260   44.6380 C.3   278  ARG278      0.0307
     43  CG       102.3190   83.8150   45.6800 C.3   278  ARG278      0.0489
     44  CD       101.7840   83.8640   47.1350 C.3   278  ARG278      0.2205
     45  NE       101.7020   85.2240   47.7130 N.pl3 278  ARG278     -0.0865
     46  CZ       101.4300   85.4240   49.0020 C.cat 278  ARG278      0.5346
     47  NH1      101.5730   86.6260   49.5520 N.pl3 278  ARG278      0.1354
     48  NH2      101.1010   84.4010   49.7760 N.pl3 278  ARG278      0.1354
     49  N         91.1680   85.2590   47.8260 N.3   282  GLY282     -0.1210
     50  CA        89.9980   85.0260   48.6510 C.3   282  GLY282      0.1956
     51  C         89.6750   83.5600   48.8540 C.2   282  GLY282      0.2613
     52  O         88.5110   83.1750   48.8120 O.2   282  GLY282     -0.2717
     53  N         90.6870   82.7310   49.0870 N.am  283  SER283     -0.1938
     54  CA        90.4560   81.2990   49.2700 C.3   283  SER283      0.2055
     55  C         90.9060   80.9100   50.6670 C.2   283  SER283      0.2644
     56  O         90.4640   79.8920   51.2240 O.2   283  SER283     -0.2714
     57  CB        91.2600   80.4980   48.2440 C.3   283  SER283      0.2130
     58  OG        91.1010   81.0210   46.9380 O.3   283  SER283     -0.2179
     59  N         91.7870   81.7230   51.2330 N.am  284  GLY284     -0.1939
     60  CA        92.2910   81.4200   52.5560 C.3   284  GLY284      0.2014
     61  C         91.2080   81.2460   53.6040 C.2   284  GLY284      0.2640
     62  O         90.1620   81.9000   53.5650 O.2   284  GLY284     -0.2714
     63  N         91.4660   80.3690   54.5570 N.am  285  SER285     -0.1935
     64  CA        90.5160   80.1240   55.6200 C.3   285  SER285      0.2055
     65  C         90.1780   81.3930   56.3760 C.2   285  SER285      0.2643
     66  O         89.0280   81.5970   56.7770 O.2   285  SER285     -0.2714
     67  CB        91.1060   79.1150   56.5830 C.3   285  SER285      0.2130
     68  OG        92.4430   79.4690   56.9050 O.3   285  SER285     -0.2179
     69  N         91.1900   82.2370   56.5800 N.am  286  ILE286     -0.1963
     70  CA        91.0370   83.5040   57.3030 C.3   286  ILE286      0.1727
     71  C         90.7670   84.7170   56.4140 C.2   286  ILE286      0.2616
     72  O         90.4480   85.8030   56.9110 O.2   286  ILE286     -0.2715
     73  CB        92.2720   83.7860   58.1330 C.3   286  ILE286      0.0290
     74  CG1       93.5230   83.4250   57.3270 C.3   286  ILE286      0.0022
     75  CG2       92.2350   82.9480   59.3860 C.3   286  ILE286      0.0023
     76  CD1       93.6430   84.1020   55.9580 C.3   286  ILE286      0.0001
     77  N         90.9080   84.5330   55.1000 N.am  287  CYS287     -0.1968
     78  CA        90.6640   85.6070   54.1360 C.3   287  CYS287      0.1712
     79  C         89.1750   85.6930   53.8940 C.2   287  CYS287      0.2296
     80  O         88.5230   84.6790   53.6640 O.2   287  CYS287     -0.2864
     81  CB        91.3750   85.3260   52.8150 C.3   287  CYS287      0.0983
     82  SG        90.9980   86.5080   51.5290 S.3   287  CYS287     -0.0798
     83  N         87.9550   88.3270   51.8000 N.3   289  THR289     -0.1218
     84  CA        87.9220   89.3630   50.7670 C.3   289  THR289      0.1862
     85  C         86.6790   89.3470   49.8800 C.2   289  THR289      0.2287
     86  O         86.0140   90.3690   49.7020 O.2   289  THR289     -0.2866
     87  CB        89.1730   89.2830   49.8830 C.3   289  THR289      0.1770
     88  OG1       90.3110   89.7050   50.6500 O.3   289  THR289     -0.2211
     89  CG2       89.0250   90.1680   48.6440 C.3   289  THR289      0.0375
     90  N         98.0720   79.1060   46.1240 N.3   320  ASP320     -0.1225
     91  CA        97.9580   79.5710   47.4860 C.3   320  ASP320      0.1805
     92  C         96.5130   79.8600   47.8770 C.2   320  ASP320      0.2598
     93  O         95.7980   80.6180   47.1960 O.2   320  ASP320     -0.2718
     94  CB        98.8180   80.8140   47.6540 C.3   320  ASP320      0.1424
     95  CG        98.5280   81.5580   48.9250 C.2   320  ASP320      0.3668
     96  OD1       98.3340   80.9300   49.9910 O.co2 320  ASP320     -0.2456
     97  OD2       98.5070   82.7930   48.8540 O.co2 320  ASP320     -0.2456
     98  N         96.0890   79.2560   48.9830 N.am  321  GLY321     -0.1942
     99  CA        94.7370   79.4520   49.4590 C.3   321  GLY321      0.2014
    100  C         93.7820   78.3810   48.9810 C.2   321  GLY321      0.2639
    101  O         93.8040   77.9860   47.8150 O.2   321  GLY321     -0.2714
    102  N         92.9520   77.8910   49.8940 N.am  322  GLY322     -0.1939
    103  CA        91.9740   76.8800   49.5390 C.3   322  GLY322      0.2014
    104  C         92.3230   75.4470   49.8870 C.2   322  GLY322      0.2638
    105  O         91.4600   74.5700   49.8490 O.2   322  GLY322     -0.2714
    106  N         93.5860   75.2000   50.2180 N.am  323  ILE323     -0.1977
    107  CA        94.0280   73.8580   50.5650 C.3   323  ILE323      0.1596
    108  C         93.5910   73.5380   51.9660 C.2   323  ILE323      0.2287
    109  O         94.2560   73.9290   52.9090 O.2   323  ILE323     -0.2864
    110  CB        95.5410   73.7670   50.5190 C.3   323  ILE323      0.0276
    111  CG1       96.0300   74.1900   49.1350 C.3   323  ILE323      0.0022
    112  CG2       95.9850   72.3580   50.8620 C.3   323  ILE323      0.0022
    113  CD1       95.3880   73.4180   47.9890 C.3   323  ILE323      0.0001
    114  N        100.9660   76.4890   48.5180 N.3   341  MET341     -0.1230
    115  CA       101.2720   77.2230   49.7450 C.3   341  MET341      0.1702
    116  C        100.1580   77.0180   50.7560 C.2   341  MET341      0.2592
    117  O         98.9810   76.9920   50.4010 O.2   341  MET341     -0.2718
    118  CB       101.4220   78.6990   49.4250 C.3   341  MET341      0.0401
    119  CG       101.7020   79.5660   50.5920 C.3   341  MET341      0.0596
    120  SD       101.8700   81.2580   49.9980 S.3   341  MET341     -0.1393
    121  CE       103.7130   81.3980   49.6990 C.3   341  MET341      0.0692
    122  N        100.5360   76.8660   52.0180 N.am  342  MET342     -0.1965
    123  CA        99.5720   76.6160   53.0810 C.3   342  MET342      0.1736
    124  C         99.7000   77.5610   54.2690 C.2   342  MET342      0.2617
    125  O        100.7610   78.1180   54.5440 O.2   342  MET342     -0.2715
    126  CB        99.7070   75.1730   53.5770 C.3   342  MET342      0.0427
    127  CG        99.5350   74.1390   52.4930 C.3   342  MET342      0.0599
    128  SD       100.7460   72.8600   52.6350 S.3   342  MET342     -0.1393
    129  CE        99.9340   71.7840   53.7580 C.3   342  MET342      0.0692
    130  N         98.5940   77.7140   54.9820 N.am  343  GLY343     -0.1940
    131  CA        98.5670   78.5790   56.1400 C.3   343  GLY343      0.2014
    132  C         97.9030   77.8550   57.2840 C.2   343  GLY343      0.2640
    133  O         98.5740   77.3260   58.1670 O.2   343  GLY343     -0.2714
    134  N         96.5820   77.8160   57.2630 N.am  344  SER344     -0.1935
    135  CA        95.8330   77.1470   58.3080 C.3   344  SER344      0.2055
    136  C         96.2820   75.7010   58.4880 C.2   344  SER344      0.2642
    137  O         96.4840   75.2410   59.6010 O.2   344  SER344     -0.2714
    138  CB        94.3520   77.1450   57.9570 C.3   344  SER344      0.2130
    139  OG        94.0950   76.2080   56.9270 O.3   344  SER344     -0.2179
    140  N         96.4250   74.9770   57.3850 N.am  345  LEU345     -0.1977
    141  CA        96.8110   73.5720   57.4310 C.3   345  LEU345      0.1596
    142  C         98.1920   73.3960   58.0100 C.2   345  LEU345      0.2287
    143  O         98.7370   72.3160   58.0090 O.2   345  LEU345     -0.2864
    144  CB        96.7580   72.9740   56.0280 C.3   345  LEU345      0.0297
    145  CG        96.8900   71.4580   55.9080 C.3   345  LEU345      0.0022
    146  CD1       95.8280   70.7930   56.7600 C.3   345  LEU345      0.0001
    147  CD2       96.7360   71.0440   54.4620 C.3   345  LEU345      0.0001
    148  N         95.8240   81.8310   65.0230 N.3   367  TYR367     -0.1241
    149  CA        95.9500   81.8470   63.5680 C.3   367  TYR367      0.1605
    150  C         94.9870   82.8640   62.9510 C.2   367  TYR367      0.2264
    151  O         93.7610   82.7480   63.1140 O.2   367  TYR367     -0.2867
    152  CB        95.6690   80.4730   62.9640 C.3   367  TYR367      0.0534
    153  CG        95.7000   80.5400   61.4460 C.ar  367  TYR367     -0.0201
    154  CD1       94.6050   80.1420   60.6760 C.ar  367  TYR367     -0.0009
    155  CD2       96.8280   81.0300   60.7780 C.ar  367  TYR367     -0.0009
    156  CE1       94.6360   80.2280   59.2880 C.ar  367  TYR367      0.0417
    157  CE2       96.8650   81.1170   59.3820 C.ar  367  TYR367      0.0417
    158  CZ        95.7690   80.7130   58.6450 C.ar  367  TYR367      0.1957
    159  OH        95.8320   80.7710   57.2650 O.3   367  TYR367     -0.2866
    160  N         94.5690   86.1130   59.5370 N.3   369  GLY369     -0.1210
    161  CA        95.0380   86.6410   58.2730 C.3   369  GLY369      0.1956
    162  C         95.7840   87.9430   58.4410 C.2   369  GLY369      0.2612
    163  O         95.4270   88.7810   59.2630 O.2   369  GLY369     -0.2717
    164  N         96.8250   88.1150   57.6400 N.am  370  MET370     -0.1965
    165  CA        97.6360   89.3180   57.6980 C.3   370  MET370      0.1736
    166  C         96.7980   90.5320   57.3050 C.2   370  MET370      0.2617
    167  O         97.2480   91.6830   57.4300 O.2   370  MET370     -0.2715
    168  CB        98.8450   89.1720   56.7570 C.3   370  MET370      0.0427
    169  CG        99.7360   87.9980   57.1050 C.3   370  MET370      0.0599
    170  SD       100.2460   88.0880   58.8010 S.3   370  MET370     -0.1393
    171  CE       101.5250   89.3580   58.6870 C.3   370  MET370      0.0692
    172  N         95.5870   90.2730   56.8140 N.am  371  GLY371     -0.1955
    173  CA        94.7150   91.3600   56.4140 C.3   371  GLY371      0.1869
    174  C         93.7450   91.7370   57.5200 C.2   371  GLY371      0.2309
    175  O         92.9260   92.6570   57.3480 O.2   371  GLY371     -0.2863
    176  N         90.0780   92.8000   55.6150 N.3   381  GLN381     -0.1231
    177  CA        89.7690   91.8220   54.5680 C.3   381  GLN381      0.1698
    178  C         90.0630   90.3910   55.0790 C.2   381  GLN381      0.2592
    179  O         90.0050   89.4060   54.3400 O.2   381  GLN381     -0.2718
    180  CB        90.6070   92.0880   53.3160 C.3   381  GLN381      0.0381
    181  CG        90.3920   93.4370   52.6780 C.3   381  GLN381      0.0905
    182  CD        90.9630   93.4880   51.2710 C.2   381  GLN381      0.2608
    183  OE1       91.1960   94.5680   50.7250 O.2   381  GLN381     -0.2717
    184  NE2       91.1790   92.3160   50.6720 N.am  381  GLN381     -0.0878
    185  N         90.4070   90.2750   56.3490 N.am  382  GLY382     -0.1957
    186  CA        90.6970   88.9670   56.8870 C.3   382  GLY382      0.1869
    187  C         90.1180   88.8540   58.2770 C.2   382  GLY382      0.2309
    188  O         89.5800   89.8190   58.8110 O.2   382  GLY382     -0.2863
@<TRIPOS>BOND
     1    38    39    1
     2    32    33    2
     3    32    31    1
     4    40    41    2
     5    40    39    1
     6    39    42    1
     7    31    30    1
     8    31    34    1
     9    42    43    1
    10    34    35    1
    11    43    44    1
    12    90    91    1
    13    35    36    2
    14    35    37   am
    15    58    57    1
    16    44    45    1
    17    93    92    2
    18    91    94    1
    19    91    92    1
    20    94    95    1
    21    45    46    2
    22   101   100    2
    23    49    50    1
    24    92    98   am
    25   113   111    1
    26    57    54    1
    27   114   115    1
    28    22    23    1
    29    89    87    1
    30    50    51    1
    31    52    51    2
    32    51    53   am
    33    97    95   ar
    34    95    96   ar
    35    24    23    1
    36    24    25    2
    37   100    99    1
    38   100   102   am
    39    98    99    1
    40    46    47    1
    41    46    48    1
    42    53    54    1
    43   111   110    1
    44    54    55    1
    45    23    26    1
    46   118   115    1
    47   118   119    1
    48   103   104    1
    49   103   102    1
    50   121   120    1
    51    86    85    2
    52   115   116    1
    53   105   104    2
    54    85    84    1
    55    87    88    1
    56    87    84    1
    57   104   106   am
    58   120   119    1
    59   106   107    1
    60   117   116    2
    61   110   107    1
    62   110   112    1
    63   107   108    1
    64    55    56    2
    65    55    59   am
    66   184   182   am
    67   183   182    2
    68   116   122   am
    69    84    83    1
    70    26    27    1
    71    28    27   ar
    72    59    60    1
    73   182   181    1
    74    82    81    1
    75    27    29   ar
    76   108   109    2
    77   122   123    1
    78   127   128    1
    79   127   126    1
    80    60    61    1
    81   128   129    1
    82   181   180    1
    83    12    13    1
    84    12    11    1
    85     6     5    1
    86    13     7    1
    87    81    78    1
    88   123   126    1
    89   123   124    1
    90   180   177    1
    91    62    61    2
    92    61    63   am
    93    80    79    2
    94    11     8    1
    95    79    78    1
    96     2     5    1
    97     2     1    1
    98     2     3    1
    99    78    77    1
   100     7     3   am
   101     7     8    1
   102   124   125    2
   103   124   130   am
   104   179   178    2
   105   147   145    1
   106    63    64    1
   107   177   178    1
   108   177   176    1
   109     3     4    2
   110     8     9    1
   111   130   131    1
   112   178   185   am
   113    77    71   am
   114    10     9    2
   115    64    65    1
   116    64    67    1
   117     9    14   am
   118   145   144    1
   119   145   146    1
   120    76    74    1
   121   144   141    1
   122   131   132    1
   123    20    19    1
   124    20    21    1
   125   185   186    1
   126    65    69   am
   127    65    66    2
   128    71    72    2
   129    71    70    1
   130   173   172    1
   131   173   174    1
   132    19    18    1
   133    69    70    1
   134    67    68    1
   135   168   169    1
   136   168   165    1
   137   172   166   am
   138    14    15    1
   139   186   187    1
   140   139   138    1
   141   169   170    1
   142   134   132   am
   143   134   135    1
   144   159   158    1
   145   132   133    2
   146    70    73    1
   147   166   167    2
   148   166   165    1
   149    74    73    1
   150   175   174    2
   151   140   141    1
   152   140   136   am
   153   141   142    1
   154   164   165    1
   155   164   162   am
   156    18    15    1
   157    15    16    1
   158   138   135    1
   159   143   142    2
   160    73    75    1
   161   161   162    1
   162   161   160    1
   163   187   188    2
   164   135   136    1
   165   162   163    2
   166   136   137    2
   167   158   156   ar
   168   158   157   ar
   169   171   170    1
   170    16    17    2
   171   156   154   ar
   172   157   155   ar
   173   154   153   ar
   174   155   153   ar
   175   153   152    1
   176   150   151    2
   177   150   149    1
   178   152   149    1
   179   149   148    1
