@<TRIPOS>MOLECULE
tmp/1nf7B01.pdb
 170 159 0 0 0
SMALL
GASTEIGER

@<TRIPOS>ATOM
      1  N        106.1100   89.7520   56.9190 N.3    84  HIS84      -0.1241
      2  CA       106.7040   91.0740   57.0550 C.3    84  HIS84       0.1621
      3  C        105.9660   92.0150   57.9940 C.2    84  HIS84       0.2264
      4  O        105.9180   93.2230   57.7400 O.2    84  HIS84      -0.2867
      5  CB       106.8580   91.7500   55.6810 C.3    84  HIS84       0.0745
      6  CG       105.5750   91.9170   54.9470 C.ar   84  HIS84       0.0817
      7  ND1      105.4790   92.6410   53.7500 N.ar   84  HIS84      -0.2268
      8  CD2      104.3220   91.4660   55.1710 C.ar   84  HIS84       0.1154
      9  CE1      104.2580   92.6080   53.3100 C.ar   84  HIS84       0.1986
     10  NE2      103.5120   91.8910   54.1590 N.ar   84  HIS84      -0.2212
     11  N        104.8110   96.3210   48.3300 N.3   208  THR208     -0.1203
     12  CA       105.1950   96.9500   47.0790 C.3   208  THR208      0.1994
     13  C        105.2130   98.4430   47.2670 C.2   208  THR208      0.2618
     14  O        105.4330   99.2030   46.3280 O.2   208  THR208     -0.2717
     15  CB       104.2200   96.5790   45.9280 C.3   208  THR208      0.1784
     16  OG1      102.8710   96.8130   46.3370 O.3   208  THR208     -0.2211
     17  CG2      104.3560   95.1040   45.5590 C.3   208  THR208      0.0376
     18  N        105.0040   98.8570   48.5070 N.am  209  HIS209     -0.1961
     19  CA       104.9950  100.2740   48.8330 C.3   209  HIS209      0.1787
     20  C        106.4350  100.7990   48.8720 C.2   209  HIS209      0.2620
     21  O        107.3680  100.0360   49.1340 O.2   209  HIS209     -0.2715
     22  CB       104.3080  100.4760   50.1800 C.3   209  HIS209      0.0785
     23  CG       103.6590  101.8160   50.3320 C.ar  209  HIS209      0.0821
     24  ND1      102.4200  101.9740   50.9160 N.ar  209  HIS209     -0.2267
     25  CD2      104.0860  103.0610   50.0020 C.ar  209  HIS209      0.1154
     26  CE1      102.1090  103.2610   50.9410 C.ar  209  HIS209      0.1986
     27  NE2      103.1030  103.9400   50.3930 N.ar  209  HIS209     -0.2212
     28  N        106.6160  102.0930   48.6160 N.am  210  GLU210     -0.1977
     29  CA       107.9560  102.6780   48.5990 C.3   210  GLU210      0.1602
     30  C        108.8550  102.2430   49.7620 C.2   210  GLU210      0.2287
     31  O        109.9570  101.7250   49.5440 O.2   210  GLU210     -0.2864
     32  CB       107.8570  104.2020   48.5590 C.3   210  GLU210      0.0415
     33  CG       109.2060  104.8990   48.5660 C.3   210  GLU210      0.1163
     34  CD       110.0930  104.4970   47.3890 C.2   210  GLU210      0.3649
     35  OE1      111.2240  105.0480   47.2940 O.co2 210  GLU210     -0.2457
     36  OE2      109.6570  103.6390   46.5730 O.co2 210  GLU210     -0.2457
     37  N        103.5410   90.7240   48.6070 N.3   230  ASP230     -0.1225
     38  CA       102.2920   90.5070   49.3330 C.3   230  ASP230      0.1805
     39  C        101.1580   91.4450   48.9420 C.2   230  ASP230      0.2598
     40  O        101.1060   92.5940   49.3830 O.2   230  ASP230     -0.2718
     41  CB       102.5620   90.6200   50.8410 C.3   230  ASP230      0.1424
     42  CG       101.8120   89.5830   51.6450 C.2   230  ASP230      0.3668
     43  OD1      101.5650   88.4860   51.0990 O.co2 230  ASP230     -0.2456
     44  OD2      101.4820   89.8660   52.8200 O.co2 230  ASP230     -0.2456
     45  N        100.2350   90.9480   48.1300 N.am  231  SER231     -0.1938
     46  CA        99.1110   91.7670   47.7040 C.3   231  SER231      0.2055
     47  C         97.9210   90.8970   47.3530 C.2   231  SER231      0.2644
     48  O         98.0800   89.7560   46.9390 O.2   231  SER231     -0.2714
     49  CB        99.5080   92.6260   46.4950 C.3   231  SER231      0.2130
     50  OG        98.5340   93.6180   46.2360 O.3   231  SER231     -0.2179
     51  N         96.7220   91.4290   47.5340 N.am  232  SER232     -0.1935
     52  CA        95.5280   90.6780   47.1990 C.3   232  SER232      0.2055
     53  C         95.3450   90.7520   45.6900 C.2   232  SER232      0.2642
     54  O         95.0120   89.7700   45.0450 O.2   232  SER232     -0.2714
     55  CB        94.3140   91.2690   47.8970 C.3   232  SER232      0.2130
     56  OG        94.0050   92.5110   47.3240 O.3   232  SER232     -0.2179
     57  N         95.5940   91.9200   45.1270 N.am  233  GLN233     -0.1976
     58  CA        95.4550   92.1190   43.7020 C.3   233  GLN233      0.1601
     59  C         96.8180   92.6020   43.2690 C.2   233  GLN233      0.2287
     60  O         97.0870   93.7940   43.2740 O.2   233  GLN233     -0.2864
     61  CB        94.3950   93.1940   43.4200 C.3   233  GLN233      0.0394
     62  CG        93.5520   92.9600   42.1740 C.3   233  GLN233      0.0908
     63  CD        94.3360   93.0770   40.8950 C.2   233  GLN233      0.2608
     64  OE1       95.3620   92.4480   40.7330 O.2   233  GLN233     -0.2717
     65  NE2       93.8460   93.8820   39.9730 N.am  233  GLN233     -0.0878
     66  N        102.2510   99.4540   40.7050 N.3   238  PHE238     -0.1241
     67  CA       103.1250   99.4730   41.8700 C.3   238  PHE238      0.1605
     68  C        103.9810   98.2190   41.9440 C.2   238  PHE238      0.2264
     69  O        105.1960   98.3080   42.1100 O.2   238  PHE238     -0.2867
     70  CB       102.2960   99.6010   43.1460 C.3   238  PHE238      0.0534
     71  CG       101.3430  100.7340   43.1180 C.ar  238  PHE238     -0.0203
     72  CD1      101.8040  102.0350   42.9950 C.ar  238  PHE238     -0.0042
     73  CD2       99.9870  100.5130   43.2540 C.ar  238  PHE238     -0.0042
     74  CE1      100.9320  103.1120   43.0160 C.ar  238  PHE238     -0.0003
     75  CE2       99.0880  101.5830   43.2760 C.ar  238  PHE238     -0.0003
     76  CZ        99.5670  102.8920   43.1580 C.ar  238  PHE238     -0.0000
     77  N         99.6210   88.0950   44.3270 N.3   259  ASN259     -0.1240
     78  CA        98.5060   87.1950   44.0540 C.3   259  ASN259      0.1653
     79  C         97.5940   87.5810   42.9090 C.2   259  ASN259      0.2266
     80  O         96.9890   88.6400   42.9330 O.2   259  ASN259     -0.2867
     81  CB        97.7000   87.0150   45.3240 C.3   259  ASN259      0.1155
     82  CG        98.4770   86.2630   46.3820 C.2   259  ASN259      0.2627
     83  OD1       99.5790   86.6900   46.8040 O.2   259  ASN259     -0.2716
     84  ND2       97.9250   85.1170   46.8100 N.am  259  ASN259     -0.0877
     85  N        101.8970   83.7920   42.2960 N.3   278  ARG278     -0.1245
     86  CA       101.1340   83.3680   43.4750 C.3   278  ARG278      0.1563
     87  C         99.6600   83.4470   43.1150 C.2   278  ARG278      0.2260
     88  O         99.0680   84.5160   43.2120 O.2   278  ARG278     -0.2867
     89  CB       101.3720   84.3260   44.6380 C.3   278  ARG278      0.0307
     90  CG       102.3190   83.8150   45.6800 C.3   278  ARG278      0.0489
     91  CD       101.7840   83.8640   47.1350 C.3   278  ARG278      0.2205
     92  NE       101.7020   85.2240   47.7130 N.pl3 278  ARG278     -0.0865
     93  CZ       101.4300   85.4240   49.0020 C.cat 278  ARG278      0.5346
     94  NH1      101.5730   86.6260   49.5520 N.pl3 278  ARG278      0.1354
     95  NH2      101.1010   84.4010   49.7760 N.pl3 278  ARG278      0.1354
     96  N         95.7450   82.9290   43.6510 N.3   280  GLY280     -0.1210
     97  CA        94.7960   82.7410   44.7310 C.3   280  GLY280      0.1956
     98  C         94.2980   84.0410   45.3170 C.2   280  GLY280      0.2612
     99  O         95.0840   84.8150   45.8640 O.2   280  GLY280     -0.2717
    100  N         92.9960   84.2910   45.2030 N.am  281  MET281     -0.1965
    101  CA        92.4120   85.5140   45.7480 C.3   281  MET281      0.1736
    102  C         91.0940   85.2190   46.4970 C.2   281  MET281      0.2617
    103  O         90.0550   84.9450   45.8950 O.2   281  MET281     -0.2715
    104  CB        92.1930   86.5600   44.6350 C.3   281  MET281      0.0427
    105  CG        91.5460   87.8530   45.1250 C.3   281  MET281      0.0599
    106  SD        91.3300   89.1700   43.8480 S.3   281  MET281     -0.1393
    107  CE        91.6720   90.6800   44.8640 C.3   281  MET281      0.0692
    108  N         91.1680   85.2590   47.8260 N.am  282  GLY282     -0.1955
    109  CA        89.9980   85.0260   48.6510 C.3   282  GLY282      0.1869
    110  C         89.6750   83.5600   48.8540 C.2   282  GLY282      0.2309
    111  O         88.5110   83.1750   48.8120 O.2   282  GLY282     -0.2863
    112  N         90.9080   84.5330   55.1000 N.3   287  CYS287     -0.1235
    113  CA        90.6640   85.6070   54.1360 C.3   287  CYS287      0.1677
    114  C         89.1750   85.6930   53.8940 C.2   287  CYS287      0.2270
    115  O         88.5230   84.6790   53.6640 O.2   287  CYS287     -0.2867
    116  CB        91.3750   85.3260   52.8150 C.3   287  CYS287      0.0956
    117  SG        90.9980   86.5080   51.5290 S.3   287  CYS287     -0.0801
    118  N         87.9550   88.3270   51.8000 N.3   289  THR289     -0.1218
    119  CA        87.9220   89.3630   50.7670 C.3   289  THR289      0.1862
    120  C         86.6790   89.3470   49.8800 C.2   289  THR289      0.2287
    121  O         86.0140   90.3690   49.7020 O.2   289  THR289     -0.2866
    122  CB        89.1730   89.2830   49.8830 C.3   289  THR289      0.1770
    123  OG1       90.3110   89.7050   50.6500 O.3   289  THR289     -0.2211
    124  CG2       89.0250   90.1680   48.6440 C.3   289  THR289      0.0375
    125  N         98.0720   79.1060   46.1240 N.3   320  ASP320     -0.1239
    126  CA        97.9580   79.5710   47.4860 C.3   320  ASP320      0.1674
    127  C         96.5130   79.8600   47.8770 C.2   320  ASP320      0.2266
    128  O         95.7980   80.6180   47.1960 O.2   320  ASP320     -0.2867
    129  CB        98.8180   80.8140   47.6540 C.3   320  ASP320      0.1410
    130  CG        98.5280   81.5580   48.9250 C.2   320  ASP320      0.3668
    131  OD1       98.3340   80.9300   49.9910 O.co2 320  ASP320     -0.2456
    132  OD2       98.5070   82.7930   48.8540 O.co2 320  ASP320     -0.2456
    133  N         96.8250   88.1150   57.6400 N.3   370  MET370     -0.1230
    134  CA        97.6360   89.3180   57.6980 C.3   370  MET370      0.1702
    135  C         96.7980   90.5320   57.3050 C.2   370  MET370      0.2592
    136  O         97.2480   91.6830   57.4300 O.2   370  MET370     -0.2718
    137  CB        98.8450   89.1720   56.7570 C.3   370  MET370      0.0401
    138  CG        99.7360   87.9980   57.1050 C.3   370  MET370      0.0596
    139  SD       100.2460   88.0880   58.8010 S.3   370  MET370     -0.1393
    140  CE       101.5250   89.3580   58.6870 C.3   370  MET370      0.0692
    141  N         95.5870   90.2730   56.8140 N.am  371  GLY371     -0.1957
    142  CA        94.7150   91.3600   56.4140 C.3   371  GLY371      0.1869
    143  C         93.7450   91.7370   57.5200 C.2   371  GLY371      0.2309
    144  O         92.9260   92.6570   57.3480 O.2   371  GLY371     -0.2863
    145  N         97.1050   93.9880   61.2230 N.3   376  MET376     -0.1245
    146  CA        97.4270   95.3280   60.7230 C.3   376  MET376      0.1570
    147  C         97.5760   96.3260   61.8740 C.2   376  MET376      0.2261
    148  O         98.4250   97.2230   61.8480 O.2   376  MET376     -0.2867
    149  CB        96.3510   95.8180   59.7450 C.3   376  MET376      0.0387
    150  CG        96.1310   94.8980   58.5240 C.3   376  MET376      0.0595
    151  SD        95.0190   95.6270   57.1850 S.3   376  MET376     -0.1393
    152  CE        93.3820   95.7970   58.1180 C.3   376  MET376      0.0692
    153  N         91.2640  101.4090   58.0900 N.3   378  LYS378     -0.1245
    154  CA        91.5140  100.4350   57.0750 C.3   378  LYS378      0.1561
    155  C         90.3650   99.4350   57.0210 C.2   378  LYS378      0.2260
    156  O         89.6780   99.1620   58.0340 O.2   378  LYS378     -0.2867
    157  CB        92.8440   99.7430   57.3740 C.3   378  LYS378      0.0271
    158  CG        93.5250   99.2240   56.1360 C.3   378  LYS378      0.0035
    159  CD        95.0350   99.2910   56.2890 C.3   378  LYS378      0.0206
    160  CE        95.7240   99.1220   54.9340 C.3   378  LYS378      0.1093
    161  NZ        97.1910   99.3930   54.9840 N.3   378  LYS378     -0.1314
    162  N         90.0780   92.8000   55.6150 N.3   381  GLN381     -0.1245
    163  CA        89.7690   91.8220   54.5680 C.3   381  GLN381      0.1566
    164  C         90.0630   90.3910   55.0790 C.2   381  GLN381      0.2260
    165  O         90.0050   89.4060   54.3400 O.2   381  GLN381     -0.2867
    166  CB        90.6070   92.0880   53.3160 C.3   381  GLN381      0.0367
    167  CG        90.3920   93.4370   52.6780 C.3   381  GLN381      0.0905
    168  CD        90.9630   93.4880   51.2710 C.2   381  GLN381      0.2608
    169  OE1       91.1960   94.5680   50.7250 O.2   381  GLN381     -0.2717
    170  NE2       91.1790   92.3160   50.6720 N.am  381  GLN381     -0.0878
@<TRIPOS>BOND
     1    65    63   am
     2    66    67    1
     3    64    63    2
     4    63    62    1
     5    67    68    1
     6    67    70    1
     7    68    69    2
     8    62    61    1
     9    85    86    1
    10    79    80    2
    11    79    78    1
    12    72    74   ar
    13    72    71   ar
    14    74    76   ar
    15    87    88    2
    16    87    86    1
    17    71    70    1
    18    71    73   ar
    19    76    75   ar
    20    73    75   ar
    21    59    60    2
    22    59    58    1
    23    61    58    1
    24    86    89    1
    25    96    97    1
    26    58    57    1
    27   106   107    1
    28   106   105    1
    29    78    77    1
    30    78    81    1
    31   104   105    1
    32   104   101    1
    33    89    90    1
    34    97    98    1
    35    54    53    2
    36    57    53   am
    37   100    98   am
    38   100   101    1
    39    98    99    2
    40    81    82    1
    41    17    15    1
    42    90    91    1
    43    53    52    1
    44   101   102    1
    45   103   102    2
    46    15    16    1
    47    15    12    1
    48   125   126    1
    49    50    49    1
    50    14    13    2
    51    82    83    2
    52    82    84   am
    53    49    46    1
    54   102   108   am
    55    36    34   ar
    56    48    47    2
    57    12    13    1
    58    12    11    1
    59    91    92    1
    60   128   127    2
    61    52    51    1
    62    52    55    1
    63    13    18   am
    64    35    34   ar
    65    56    55    1
    66    47    51   am
    67    47    46    1
    68    34    33    1
    69   126   129    1
    70   126   127    1
    71   129   130    1
    72    46    45    1
    73    92    93    2
    74   108   109    1
    75    45    39   am
    76    18    19    1
    77    32    33    1
    78    32    29    1
    79    29    28    1
    80    29    30    1
    81    37    38    1
    82    28    20   am
    83   124   122    1
    84   109   110    1
    85   111   110    2
    86    19    20    1
    87    19    22    1
    88   132   130   ar
    89    20    21    2
    90   130   131   ar
    91    39    38    1
    92    39    40    2
    93    93    94    1
    94    93    95    1
    95    38    41    1
    96    31    30    2
    97   121   120    2
    98   120   119    1
    99   122   123    1
   100   122   119    1
   101    25    23   ar
   102    25    27   ar
   103    22    23    1
   104    23    24   ar
   105    27    26   ar
   106   170   168   am
   107   169   168    2
   108   119   118    1
   109    41    42    1
   110    24    26   ar
   111    43    42   ar
   112   168   167    1
   113   117   116    1
   114    42    44   ar
   115   167   166    1
   116   116   113    1
   117     9     7   ar
   118     9    10   ar
   119   166   163    1
   120   115   114    2
   121     7     6   ar
   122   114   113    1
   123   113   112    1
   124    10     8   ar
   125   165   164    2
   126   163   164    1
   127   163   162    1
   128   160   161    1
   129   160   159    1
   130     6     8   ar
   131     6     5    1
   132     5     2    1
   133   158   159    1
   134   158   157    1
   135   142   141    1
   136   142   143    1
   137   137   138    1
   138   137   134    1
   139   141   135   am
   140     1     2    1
   141   155   154    1
   142   155   156    2
   143     2     3    1
   144   154   157    1
   145   154   153    1
   146   138   139    1
   147   151   152    1
   148   151   150    1
   149   135   136    2
   150   135   134    1
   151   144   143    2
   152   133   134    1
   153     4     3    2
   154   150   149    1
   155   140   139    1
   156   149   146    1
   157   146   145    1
   158   146   147    1
   159   148   147    2
