@<TRIPOS>MOLECULE
tmp/1nf8A01.pdb
 174 171 0 0 0
SMALL
GASTEIGER

@<TRIPOS>ATOM
      1  N          5.1500   16.2130   82.7930 N.3     2  SER2       -0.1217
      2  CA         5.6690   16.7110   81.5320 C.3     2  SER2        0.1889
      3  C          4.7830   16.3600   80.3470 C.2     2  SER2        0.2288
      4  O          4.7730   17.0800   79.3490 O.2     2  SER2       -0.2866
      5  CB         7.0680   16.1140   81.2920 C.3     2  SER2        0.2089
      6  OG         7.0250   14.7170   81.0440 O.3     2  SER2       -0.2183
      7  N          5.3760   13.9270   78.5700 N.3     4  ILE4       -0.1245
      8  CA         6.2740   13.2040   77.6500 C.3     4  ILE4        0.1561
      9  C          6.4150   11.7750   78.1270 C.2     4  ILE4        0.2260
     10  O          6.7770   11.5130   79.2740 O.2     4  ILE4       -0.2867
     11  CB         7.6140   13.9370   77.5630 C.3     4  ILE4        0.0252
     12  CG1        7.4700   15.3540   76.9880 C.3     4  ILE4        0.0019
     13  CG2        8.6330   13.1240   76.7920 C.3     4  ILE4        0.0019
     14  CD1        8.7120   16.2120   77.1300 C.3     4  ILE4        0.0001
     15  N         15.5530   22.9350   66.0510 N.3    37  HIS37      -0.1226
     16  CA        14.2650   23.0000   66.7220 C.3    37  HIS37       0.1752
     17  C         14.2480   22.3410   68.0900 C.2    37  HIS37       0.2595
     18  O         14.2540   21.1020   68.1770 O.2    37  HIS37      -0.2718
     19  CB        13.2060   22.3170   65.8180 C.3    37  HIS37       0.0759
     20  CG        11.8280   22.4240   66.4070 C.ar   37  HIS37       0.0818
     21  ND1       11.3920   21.6130   67.4220 N.ar   37  HIS37      -0.2268
     22  CD2       10.7930   23.2600   66.1410 C.ar   37  HIS37       0.1154
     23  CE1       10.1420   21.9450   67.7420 C.ar   37  HIS37       0.1986
     24  NE2        9.7470   22.9480   66.9860 N.ar   37  HIS37      -0.2212
     25  N         14.1730   23.1630   69.1240 N.am   38  ALA38      -0.1980
     26  CA        13.9280   22.7890   70.4960 C.3    38  ALA38       0.1597
     27  C         14.9600   21.7980   71.0020 C.2    38  ALA38       0.2287
     28  O         14.5910   20.8760   71.7460 O.2    38  ALA38      -0.2864
     29  CB        12.5260   22.2000   70.7080 C.3    38  ALA38       0.0319
     30  N         16.0660   20.0650   78.4910 N.3    42  TYR42      -0.1227
     31  CA        14.8180   19.4620   78.9880 C.3    42  TYR42       0.1736
     32  C         14.1790   18.5030   77.9890 C.2    42  TYR42       0.2595
     33  O         13.6330   17.4670   78.3600 O.2    42  TYR42      -0.2718
     34  CB        13.8290   20.5660   79.3140 C.3    42  TYR42       0.0548
     35  CG        12.4310   20.2240   79.7370 C.ar   42  TYR42      -0.0200
     36  CD1       11.4100   20.0610   78.8090 C.ar   42  TYR42      -0.0009
     37  CD2       12.0920   20.0790   81.0720 C.ar   42  TYR42      -0.0009
     38  CE1       10.1210   19.7510   79.1910 C.ar   42  TYR42       0.0417
     39  CE2       10.8110   19.7700   81.4590 C.ar   42  TYR42       0.0417
     40  CZ         9.8160   19.6040   80.5210 C.ar   42  TYR42       0.1957
     41  OH         8.5210   19.2960   80.8840 O.3    42  TYR42      -0.2866
     42  N         14.2000   18.8790   76.7160 N.am   43  PHE43      -0.1976
     43  CA        13.5300   18.0160   75.7290 C.3    43  PHE43       0.1639
     44  C         14.3570   16.8060   75.3280 C.2    43  PHE43       0.2290
     45  O         13.7680   15.8480   74.7830 O.2    43  PHE43      -0.2864
     46  CB        13.1480   18.8090   74.4860 C.3    43  PHE43       0.0560
     47  CG        12.0630   19.8510   74.7150 C.ar   43  PHE43      -0.0200
     48  CD1       10.8530   19.4970   75.2670 C.ar   43  PHE43      -0.0042
     49  CD2       12.2570   21.1700   74.3540 C.ar   43  PHE43      -0.0042
     50  CE1        9.8570   20.4350   75.4930 C.ar   43  PHE43      -0.0003
     51  CE2       11.2910   22.1230   74.5920 C.ar   43  PHE43      -0.0003
     52  CZ        10.0790   21.7610   75.1540 C.ar   43  PHE43      -0.0000
     53  N         12.2060   27.6170   74.1420 N.3    78  GLN78      -0.1245
     54  CA        11.2650   28.0180   75.1490 C.3    78  GLN78       0.1566
     55  C         12.0420   28.7760   76.2360 C.2    78  GLN78       0.2260
     56  O         13.1890   28.4680   76.5680 O.2    78  GLN78      -0.2867
     57  CB        10.4900   26.8860   75.8140 C.3    78  GLN78       0.0367
     58  CG         9.5280   26.1240   74.9100 C.3    78  GLN78       0.0905
     59  CD         8.5660   25.2250   75.6730 C.2    78  GLN78       0.2608
     60  OE1        8.6810   24.9750   76.8800 O.2    78  GLN78      -0.2717
     61  NE2        7.5720   24.7250   74.9450 N.am   78  GLN78      -0.0878
     62  N          1.5470   30.0200   79.2010 N.3    87  ARG87      -0.1245
     63  CA         1.4480   28.5730   79.0160 C.3    87  ARG87       0.1563
     64  C          0.1510   28.1580   78.3180 C.2    87  ARG87       0.2260
     65  O          0.1340   27.2370   77.4860 O.2    87  ARG87      -0.2867
     66  CB         1.5580   27.9130   80.3780 C.3    87  ARG87       0.0307
     67  CG         1.7680   26.4180   80.4160 C.3    87  ARG87       0.0489
     68  CD         3.1140   26.0150   79.8240 C.3    87  ARG87       0.2205
     69  NE         3.3080   24.5610   79.8440 N.pl3  87  ARG87      -0.0865
     70  CZ         4.2280   23.9410   79.1090 C.cat  87  ARG87       0.5346
     71  NH1        5.0380   24.6230   78.3110 N.pl3  87  ARG87       0.1354
     72  NH2        4.3530   22.6210   79.1660 N.pl3  87  ARG87       0.1354
     73  N         -1.1550   24.6290   76.7350 N.3    90  LEU90      -0.1245
     74  CA        -0.0860   23.6130   76.8120 C.3    90  LEU90       0.1561
     75  C         -0.2040   22.8530   78.1290 C.2    90  LEU90       0.2260
     76  O          0.2100   21.6910   78.2310 O.2    90  LEU90      -0.2867
     77  CB         1.2980   24.2300   76.7460 C.3    90  LEU90       0.0270
     78  CG         1.6680   24.9300   75.4470 C.3    90  LEU90       0.0019
     79  CD1        3.0410   25.5810   75.5110 C.3    90  LEU90       0.0001
     80  CD2        1.6120   23.9050   74.3100 C.3    90  LEU90       0.0001
     81  N          0.8040   19.0710   78.7660 N.3    94  TRP94      -0.1241
     82  CA         2.2500   19.0510   79.0370 C.3    94  TRP94       0.1605
     83  C          2.6520   19.6620   80.3720 C.2    94  TRP94       0.2264
     84  O          3.8470   19.8740   80.6470 O.2    94  TRP94      -0.2867
     85  CB         2.9600   19.7680   77.9040 C.3    94  TRP94       0.0550
     86  CG         2.5510   19.4130   76.5150 C.ar   94  TRP94       0.0003
     87  CD1        1.8240   20.1900   75.6590 C.ar   94  TRP94       0.0946
     88  CD2        2.8430   18.2050   75.7940 C.ar   94  TRP94       0.0152
     89  NE1        1.6470   19.5320   74.4490 N.ar   94  TRP94      -0.2442
     90  CE2        2.2620   18.3100   74.5100 C.ar   94  TRP94       0.0810
     91  CE3        3.5290   17.0440   76.0940 C.ar   94  TRP94       0.0012
     92  CZ2        2.3400   17.3250   73.5450 C.ar   94  TRP94       0.0191
     93  CZ3        3.6060   16.0650   75.1300 C.ar   94  TRP94       0.0001
     94  CH2        3.0250   16.1930   73.8810 C.ar   94  TRP94       0.0015
     95  N          5.5520   22.9050   82.3270 N.3    97  GLY97      -0.1225
     96  CA         6.6860   22.8690   81.4390 C.3    97  GLY97       0.1811
     97  C          8.0070   23.1960   82.0830 C.2    97  GLY97       0.2280
     98  O          8.1320   23.3580   83.3080 O.2    97  GLY97      -0.2866
     99  N         10.3770   29.9200   71.3610 N.3   122  LYS122     -0.1231
    100  CA         9.3390   28.9220   71.1000 C.3   122  LYS122      0.1693
    101  C          8.2240   29.0730   72.1280 C.2   122  LYS122      0.2592
    102  O          8.5150   29.0290   73.3280 O.2   122  LYS122     -0.2718
    103  CB         9.8940   27.5010   71.1660 C.3   122  LYS122      0.0285
    104  CG         8.8890   26.3560   71.0360 C.3   122  LYS122      0.0035
    105  CD         9.6900   25.0500   70.9420 C.3   122  LYS122      0.0206
    106  CE         8.8720   23.8070   71.1790 C.3   122  LYS122      0.1093
    107  NZ         7.6070   23.8390   70.3930 N.3   122  LYS122     -0.1314
    108  N          7.0170   29.2490   71.5730 N.am  123  TRP123     -0.1962
    109  CA         5.8430   29.2870   72.4180 C.3   123  TRP123      0.1771
    110  C          4.9050   28.1000   72.1950 C.2   123  TRP123      0.2619
    111  O          4.3540   27.5660   73.1750 O.2   123  TRP123     -0.2715
    112  CB         5.0790   30.5650   72.1390 C.3   123  TRP123      0.0590
    113  CG         5.8130   31.8130   72.4950 C.ar  123  TRP123      0.0006
    114  CD1        6.3800   32.7190   71.6390 C.ar  123  TRP123      0.0946
    115  CD2        6.0490   32.2830   73.8330 C.ar  123  TRP123      0.0152
    116  NE1        6.9530   33.7280   72.3770 N.ar  123  TRP123     -0.2442
    117  CE2        6.7690   33.4850   73.7230 C.ar  123  TRP123      0.0810
    118  CE3        5.7300   31.8110   75.1010 C.ar  123  TRP123      0.0012
    119  CZ2        7.1590   34.1980   74.8460 C.ar  123  TRP123      0.0191
    120  CZ3        6.1220   32.5260   76.2140 C.ar  123  TRP123      0.0001
    121  CH2        6.8370   33.7200   76.0890 C.ar  123  TRP123      0.0015
    122  N          4.7060   27.7320   70.9230 N.am  124  ARG124     -0.1963
    123  CA         3.7670   26.6870   70.5790 C.3   124  ARG124      0.1729
    124  C          4.3960   25.7140   69.5900 C.2   124  ARG124      0.2616
    125  O          5.5980   25.7930   69.3220 O.2   124  ARG124     -0.2715
    126  CB         2.4490   27.3140   70.1010 C.3   124  ARG124      0.0348
    127  CG         1.7290   28.0820   71.2010 C.3   124  ARG124      0.0492
    128  CD         1.2610   27.2300   72.3600 C.3   124  ARG124      0.2205
    129  NE         0.3720   27.9900   73.2720 N.pl3 124  ARG124     -0.0865
    130  CZ         0.7390   28.7930   74.2480 C.cat 124  ARG124      0.5346
    131  NH1        2.0320   28.9700   74.4770 N.pl3 124  ARG124      0.1354
    132  NH2       -0.1240   29.4400   75.0260 N.pl3 124  ARG124      0.1354
    133  N          3.6110   24.7760   69.0850 N.am  125  TYR125     -0.1974
    134  CA         4.1560   23.7080   68.2320 C.3   125  TYR125      0.1639
    135  C          4.9140   24.2720   67.0440 C.2   125  TYR125      0.2290
    136  O          6.0180   23.8390   66.6980 O.2   125  TYR125     -0.2864
    137  CB         3.0730   22.7170   67.7490 C.3   125  TYR125      0.0560
    138  CG         2.3740   21.9560   68.8600 C.ar  125  TYR125     -0.0198
    139  CD1        2.9200   21.7960   70.1310 C.ar  125  TYR125     -0.0009
    140  CD2        1.1360   21.3640   68.6410 C.ar  125  TYR125     -0.0009
    141  CE1        2.2670   21.0960   71.1290 C.ar  125  TYR125      0.0417
    142  CE2        0.4700   20.6680   69.6380 C.ar  125  TYR125      0.0417
    143  CZ         1.0320   20.5290   70.8870 C.ar  125  TYR125      0.1957
    144  OH         0.3600   19.8260   71.8710 O.3   125  TYR125     -0.2866
    145  N         13.6820   18.0650   67.8310 N.3   150  VAL150     -0.1231
    146  CA        12.6240   17.2740   68.4520 C.3   150  VAL150      0.1692
    147  C         11.3670   18.0830   68.7150 C.2   150  VAL150      0.2592
    148  O         11.4810   19.3290   68.8450 O.2   150  VAL150     -0.2718
    149  CB        13.1260   16.7150   69.7980 C.3   150  VAL150      0.0266
    150  CG1       14.3220   15.8300   69.5680 C.3   150  VAL150      0.0020
    151  CG2       13.4940   17.8680   70.7400 C.3   150  VAL150      0.0020
    152  N         10.2080   17.4480   68.8110 N.am  151  TYR151     -0.1976
    153  CA         9.8580   16.0670   68.5430 C.3   151  TYR151      0.1639
    154  C          9.3220   15.9640   67.1180 C.2   151  TYR151      0.2290
    155  O          8.5530   16.8470   66.6840 O.2   151  TYR151     -0.2864
    156  CB         8.8360   15.5270   69.5580 C.3   151  TYR151      0.0560
    157  CG         9.4620   15.5860   70.9350 C.ar  151  TYR151     -0.0198
    158  CD1       10.4760   14.7490   71.3460 C.ar  151  TYR151     -0.0009
    159  CD2        9.0210   16.5340   71.8380 C.ar  151  TYR151     -0.0009
    160  CE1       11.0020   14.8710   72.6350 C.ar  151  TYR151      0.0417
    161  CE2        9.5370   16.6670   73.1070 C.ar  151  TYR151      0.0417
    162  CZ        10.5490   15.8220   73.5150 C.ar  151  TYR151      0.1957
    163  OH        11.0750   15.9500   74.7850 O.3   151  TYR151     -0.2866
    164  N          5.5780   16.3750   66.5200 N.3   154  VAL154     -0.1231
    165  CA         4.8950   17.5210   67.1460 C.3   154  VAL154      0.1692
    166  C          5.4340   18.8040   66.5440 C.2   154  VAL154      0.2592
    167  O          5.0780   19.1230   65.3920 O.2   154  VAL154     -0.2718
    168  CB         4.9960   17.4500   68.6810 C.3   154  VAL154      0.0266
    169  CG1        4.1950   18.5930   69.3060 C.3   154  VAL154      0.0020
    170  CG2        4.5360   16.0850   69.1650 C.3   154  VAL154      0.0020
    171  N          6.2920   19.5700   67.2220 N.am  155  GLY155     -0.1957
    172  CA         6.7700   20.8420   66.6990 C.3   155  GLY155      0.1869
    173  C          7.5580   20.8020   65.4030 C.2   155  GLY155      0.2309
    174  O          7.4890   21.7110   64.5600 O.2   155  GLY155     -0.2863
@<TRIPOS>BOND
     1   174   173    2
     2   167   166    2
     3   173   172    1
     4    19    20    1
     5    19    16    1
     6    15    16    1
     7    22    20   ar
     8    22    24   ar
     9    20    21   ar
    10   164   165    1
    11   166   165    1
    12   166   171   am
    13   155   154    2
    14   136   135    2
    15   172   171    1
    16    16    17    1
    17    24    23   ar
    18   135   134    1
    19   154   153    1
    20   165   168    1
    21    21    23   ar
    22   137   134    1
    23   137   138    1
    24   145   146    1
    25    17    18    2
    26    17    25   am
    27   134   133    1
    28   146   147    1
    29   146   149    1
    30   153   152    1
    31   153   156    1
    32   140   138   ar
    33   140   142   ar
    34   168   170    1
    35   168   169    1
    36   147   152   am
    37   147   148    2
    38   138   139   ar
    39   133   124   am
    40    25    26    1
    41   125   124    2
    42   156   157    1
    43   150   149    1
    44   124   123    1
    45   142   143   ar
    46   149   151    1
    47   126   123    1
    48   126   127    1
    49   139   141   ar
    50   107   106    1
    51    26    29    1
    52    26    27    1
    53   123   122    1
    54   143   141   ar
    55   143   144    1
    56   122   110   am
    57   157   158   ar
    58   157   159   ar
    59   105   104    1
    60   105   106    1
    61    27    28    2
    62   104   103    1
    63   100   103    1
    64   100    99    1
    65   100   101    1
    66   127   128    1
    67   158   160   ar
    68   108   101   am
    69   108   109    1
    70   114   116   ar
    71   114   113   ar
    72   159   161   ar
    73   101   102    2
    74   112   109    1
    75   112   113    1
    76   110   109    1
    77   110   111    2
    78   128   129    1
    79   116   117   ar
    80   113   115   ar
    81   160   162   ar
    82   161   162   ar
    83   129   130    2
    84   162   163    1
    85    92    94   ar
    86    92    90   ar
    87   117   115   ar
    88   117   119   ar
    89   115   118   ar
    90    94    93   ar
    91    53    54    1
    92   130   131    1
    93   130   132    1
    94    80    78    1
    95    49    51   ar
    96    49    47   ar
    97    89    90   ar
    98    89    87   ar
    99    46    47    1
   100    46    43    1
   101    90    88   ar
   102    51    52   ar
   103    47    48   ar
   104    45    44    2
   105   119   121   ar
   106    58    59    1
   107    58    57    1
   108    61    59   am
   109   118   120   ar
   110    93    91   ar
   111    54    57    1
   112    54    55    1
   113    52    50   ar
   114    48    50   ar
   115    44    43    1
   116    78    79    1
   117    78    77    1
   118    87    86   ar
   119    59    60    2
   120    43    42    1
   121    88    91   ar
   122    88    86   ar
   123   121   120   ar
   124    55    56    2
   125    86    85    1
   126    42    32   am
   127    73    74    1
   128    77    74    1
   129    13    11    1
   130    74    75    1
   131    12    14    1
   132    12    11    1
   133    65    64    2
   134    11     8    1
   135     8     9    1
   136     8     7    1
   137    85    82    1
   138    32    33    2
   139    32    31    1
   140     9    10    2
   141    75    76    2
   142    71    70    1
   143    64    63    1
   144    30    31    1
   145    81    82    1
   146    36    38   ar
   147    36    35   ar
   148    31    34    1
   149    63    62    1
   150    63    66    1
   151    82    83    1
   152    70    72    1
   153    70    69    2
   154    38    40   ar
   155    34    35    1
   156     4     3    2
   157    35    37   ar
   158    68    69    1
   159    68    67    1
   160     3     2    1
   161    83    84    2
   162    66    67    1
   163    40    41    1
   164    40    39   ar
   165     6     5    1
   166    37    39   ar
   167     5     2    1
   168    96    97    1
   169    96    95    1
   170     2     1    1
   171    97    98    2
