@<TRIPOS>MOLECULE
tmp/1nfbB01.pdb
 159 150 0 0 0
SMALL
GASTEIGER

@<TRIPOS>ATOM
      1  N         40.6730   89.0230  -55.4990 N.3    84  HIS84      -0.1241
      2  CA        40.1370   90.3620  -55.7150 C.3    84  HIS84       0.1621
      3  C         41.0080   91.2700  -56.5740 C.2    84  HIS84       0.2264
      4  O         41.2870   92.4200  -56.2170 O.2    84  HIS84      -0.2867
      5  CB        39.8160   91.0500  -54.3850 C.3    84  HIS84       0.0745
      6  CG        40.9960   91.2380  -53.4940 C.ar   84  HIS84       0.0817
      7  ND1       40.8750   91.6610  -52.1860 N.ar   84  HIS84      -0.2268
      8  CD2       42.3180   91.0260  -53.7040 C.ar   84  HIS84       0.1154
      9  CE1       42.0710   91.6940  -51.6270 C.ar   84  HIS84       0.1986
     10  NE2       42.9650   91.3120  -52.5260 N.ar   84  HIS84      -0.2212
     11  N         40.3070   93.8080  -49.2850 N.3   183  GLY183     -0.1210
     12  CA        41.3580   94.5400  -48.5950 C.3   183  GLY183      0.1956
     13  C         40.8190   95.2230  -47.3590 C.2   183  GLY183      0.2613
     14  O         39.6860   94.9530  -46.9680 O.2   183  GLY183     -0.2717
     15  N         41.6080   96.0880  -46.7270 N.am  184  THR184     -0.1938
     16  CA        41.1070   96.7810  -45.5450 C.3   184  THR184      0.2028
     17  C         40.9460   98.2860  -45.7690 C.2   184  THR184      0.2642
     18  O         40.6380   99.0340  -44.8410 O.2   184  THR184     -0.2714
     19  CB        41.9920   96.5450  -44.3040 C.3   184  THR184      0.1808
     20  OG1       43.3270   96.9680  -44.5880 O.3   184  THR184     -0.2208
     21  CG2       41.9760   95.0790  -43.9020 C.3   184  THR184      0.0379
     22  N         41.1420   98.7210  -47.0070 N.am  185  HIS185     -0.1959
     23  CA        40.9830  100.1210  -47.3570 C.3   185  HIS185      0.1787
     24  C         39.5060  100.4030  -47.4700 C.2   185  HIS185      0.2620
     25  O         38.6900   99.4840  -47.5090 O.2   185  HIS185     -0.2715
     26  CB        41.6210  100.4260  -48.6980 C.3   185  HIS185      0.0785
     27  CG        43.0960  100.2230  -48.7190 C.ar  185  HIS185      0.0821
     28  ND1       43.9900  101.2670  -48.6520 N.ar  185  HIS185     -0.2267
     29  CD2       43.8360   99.0920  -48.7840 C.ar  185  HIS185      0.1154
     30  CE1       45.2220  100.7890  -48.6770 C.ar  185  HIS185      0.1986
     31  NE2       45.1550   99.4720  -48.7560 N.ar  185  HIS185     -0.2212
     32  N         39.1750  101.6840  -47.5540 N.am  186  GLU186     -0.1977
     33  CA        37.7980  102.1310  -47.6560 C.3   186  GLU186      0.1602
     34  C         37.0300  101.4690  -48.7810 C.2   186  GLU186      0.2287
     35  O         36.0120  100.8130  -48.5620 O.2   186  GLU186     -0.2864
     36  CB        37.7840  103.6400  -47.8600 C.3   186  GLU186      0.0415
     37  CG        38.1570  104.3820  -46.6150 C.3   186  GLU186      0.1163
     38  CD        37.3460  103.8840  -45.4420 C.2   186  GLU186      0.3649
     39  OE1       36.0820  103.8990  -45.5310 O.co2 186  GLU186     -0.2457
     40  OE2       37.9840  103.4690  -44.4460 O.co2 186  GLU186     -0.2457
     41  N         42.4200   89.8820  -46.9110 N.3   206  ASP206     -0.1225
     42  CA        43.7250   89.6660  -47.5430 C.3   206  ASP206      0.1805
     43  C         44.8430   90.6450  -47.1300 C.2   206  ASP206      0.2598
     44  O         44.8010   91.8300  -47.4530 O.2   206  ASP206     -0.2718
     45  CB        43.5190   89.6830  -49.0630 C.3   206  ASP206      0.1424
     46  CG        44.8120   89.6540  -49.8370 C.2   206  ASP206      0.3668
     47  OD1       45.0980   88.5940  -50.4470 O.co2 206  ASP206     -0.2456
     48  OD2       45.5320   90.6830  -49.8390 O.co2 206  ASP206     -0.2456
     49  N         45.8580   90.1490  -46.4260 N.am  207  SER207     -0.1938
     50  CA        46.9460   91.0300  -45.9850 C.3   207  SER207      0.2055
     51  C         48.2060   90.3240  -45.4880 C.2   207  SER207      0.2644
     52  O         48.1300   89.3180  -44.7860 O.2   207  SER207     -0.2714
     53  CB        46.4490   91.9670  -44.8670 C.3   207  SER207      0.2130
     54  OG        47.5080   92.7790  -44.3530 O.3   207  SER207     -0.2179
     55  N         49.3630   90.8720  -45.8290 N.am  208  SER208     -0.1935
     56  CA        50.6130   90.2820  -45.4050 C.3   208  SER208      0.2055
     57  C         50.8030   90.4190  -43.8980 C.2   208  SER208      0.2642
     58  O         51.2940   89.5020  -43.2470 O.2   208  SER208     -0.2714
     59  CB        51.7810   90.9420  -46.1200 C.3   208  SER208      0.2130
     60  OG        52.0020   92.2490  -45.6290 O.3   208  SER208     -0.2179
     61  N         50.4240   91.5680  -43.3480 N.am  209  GLN209     -0.1976
     62  CA        50.5450   91.8250  -41.9170 C.3   209  GLN209      0.1601
     63  C         49.1440   92.2030  -41.4900 C.2   209  GLN209      0.2287
     64  O         48.7230   93.3450  -41.6480 O.2   209  GLN209     -0.2864
     65  CB        51.5210   92.9800  -41.6660 C.3   209  GLN209      0.0394
     66  CG        52.5750   92.6890  -40.6070 C.3   209  GLN209      0.0908
     67  CD        51.9840   92.5250  -39.2180 C.2   209  GLN209      0.2608
     68  OE1       51.0180   91.7700  -39.0280 O.2   209  GLN209     -0.2717
     69  NE2       52.5610   93.2240  -38.2370 N.am  209  GLN209     -0.0878
     70  N         46.9670   95.0620  -37.9420 N.3   212  SER212     -0.1217
     71  CA        46.9800   96.5020  -38.0870 C.3   212  SER212      0.1889
     72  C         45.6790   97.0840  -37.5820 C.2   212  SER212      0.2288
     73  O         44.6540   96.4090  -37.5240 O.2   212  SER212     -0.2866
     74  CB        47.1700   96.8710  -39.5550 C.3   212  SER212      0.2089
     75  OG        46.1740   96.2520  -40.3560 O.3   212  SER212     -0.2183
     76  N         44.0260   98.9120  -39.1120 N.3   214  PHE214     -0.1241
     77  CA        43.1990   98.8720  -40.3040 C.3   214  PHE214      0.1605
     78  C         42.3870   97.5870  -40.3890 C.2   214  PHE214      0.2264
     79  O         41.1790   97.6260  -40.5830 O.2   214  PHE214     -0.2867
     80  CB        44.1050   99.0450  -41.5150 C.3   214  PHE214      0.0534
     81  CG        45.1440  100.1420  -41.3420 C.ar  214  PHE214     -0.0203
     82  CD1       44.7710  101.4280  -40.9620 C.ar  214  PHE214     -0.0042
     83  CD2       46.4930   99.8890  -41.5530 C.ar  214  PHE214     -0.0042
     84  CE1       45.7210  102.4330  -40.7960 C.ar  214  PHE214     -0.0003
     85  CE2       47.4440  100.9020  -41.3850 C.ar  214  PHE214     -0.0003
     86  CZ        47.0530  102.1680  -41.0070 C.ar  214  PHE214     -0.0000
     87  N         46.8820   87.9990  -42.4390 N.3   235  ASN235     -0.1240
     88  CA        47.9060   87.0000  -42.1630 C.3   235  ASN235      0.1653
     89  C         48.7290   87.2630  -40.9100 C.2   235  ASN235      0.2266
     90  O         49.2740   88.3490  -40.7430 O.2   235  ASN235     -0.2867
     91  CB        48.8140   86.8390  -43.3700 C.3   235  ASN235      0.1155
     92  CG        48.4710   85.6090  -44.1770 C.2   235  ASN235      0.2627
     93  OD1       47.3020   85.2820  -44.3630 O.2   235  ASN235     -0.2716
     94  ND2       49.4900   84.9180  -44.6660 N.am  235  ASN235     -0.0877
     95  N         44.1540   83.3030  -40.5440 N.3   254  ARG254     -0.1245
     96  CA        44.8410   82.7790  -41.6940 C.3   254  ARG254      0.1563
     97  C         46.3120   82.9260  -41.3810 C.2   254  ARG254      0.2260
     98  O         46.8310   84.0370  -41.4410 O.2   254  ARG254     -0.2867
     99  CB        44.4710   83.6070  -42.8750 C.3   254  ARG254      0.0307
    100  CG        44.8840   83.0320  -44.1420 C.3   254  ARG254      0.0489
    101  CD        44.8510   84.1580  -45.0730 C.3   254  ARG254      0.2205
    102  NE        44.9850   83.7760  -46.4550 N.pl3 254  ARG254     -0.0865
    103  CZ        45.0070   84.6760  -47.4210 C.cat 254  ARG254      0.5346
    104  NH1       44.9140   85.9730  -47.1120 N.pl3 254  ARG254      0.1354
    105  NH2       45.0720   84.2860  -48.6750 N.pl3 254  ARG254      0.1354
    106  N         53.3870   83.6620  -43.5470 N.3   257  MET257     -0.1245
    107  CA        54.1350   84.8790  -43.9090 C.3   257  MET257      0.1570
    108  C         55.5870   84.5570  -44.2420 C.2   257  MET257      0.2261
    109  O         56.3610   84.1560  -43.3710 O.2   257  MET257     -0.2867
    110  CB        54.1100   85.9110  -42.7680 C.3   257  MET257      0.0387
    111  CG        55.1450   87.0490  -42.9060 C.3   257  MET257      0.0595
    112  SD        54.9950   88.4330  -41.7460 S.3   257  MET257     -0.1393
    113  CE        55.3880   89.7950  -42.8440 C.3   257  MET257      0.0692
    114  N         54.8740   87.7060  -55.0140 N.3   263  CYS263     -0.1221
    115  CA        54.2860   88.4950  -56.0970 C.3   263  CYS263      0.1808
    116  C         55.2590   89.6260  -56.4430 C.2   263  CYS263      0.2601
    117  O         55.8360   89.6570  -57.5370 O.2   263  CYS263     -0.2717
    118  CB        52.9070   89.0500  -55.6890 C.3   263  CYS263      0.0970
    119  SG        51.5710   87.7860  -55.5920 S.3   263  CYS263     -0.0800
    120  N         55.4290   90.5490  -55.5020 N.am  264  ILE264     -0.1965
    121  CA        56.3550   91.6640  -55.6470 C.3   264  ILE264      0.1727
    122  C         56.8330   91.9550  -54.2330 C.2   264  ILE264      0.2616
    123  O         56.6370   91.1320  -53.3360 O.2   264  ILE264     -0.2715
    124  CB        55.6860   92.9290  -56.2500 C.3   264  ILE264      0.0290
    125  CG1       56.7680   93.9450  -56.6380 C.3   264  ILE264      0.0022
    126  CG2       54.7140   93.5490  -55.2460 C.3   264  ILE264      0.0023
    127  CD1       56.2650   95.1110  -57.4750 C.3   264  ILE264      0.0001
    128  N         57.4580   93.1110  -54.0360 N.am  265  THR265     -0.1951
    129  CA        57.9650   93.5230  -52.7250 C.3   265  THR265      0.1897
    130  C         58.9460   92.5410  -52.0820 C.2   265  THR265      0.2313
    131  O         59.9270   92.1350  -52.7060 O.2   265  THR265     -0.2863
    132  CB        56.8130   93.7910  -51.7200 C.3   265  THR265      0.1794
    133  OG1       55.7690   94.5290  -52.3730 O.3   265  THR265     -0.2208
    134  CG2       57.3290   94.6080  -50.5140 C.3   265  THR265      0.0378
    135  N         58.7150   88.9760  -49.9030 N.3   267  GLU267     -0.1245
    136  CA        58.0560   87.8710  -49.2160 C.3   267  GLU267      0.1567
    137  C         58.9330   87.4440  -48.0260 C.2   267  GLU267      0.2260
    138  O         58.4330   87.1570  -46.9290 O.2   267  GLU267     -0.2867
    139  CB        57.8510   86.6970  -50.1920 C.3   267  GLU267      0.0388
    140  CG        57.0240   85.5090  -49.6670 C.3   267  GLU267      0.1160
    141  CD        55.6860   85.9130  -49.0540 C.2   267  GLU267      0.3649
    142  OE1       55.2070   87.0350  -49.3390 O.co2 267  GLU267     -0.2457
    143  OE2       55.1050   85.0990  -48.2960 O.co2 267  GLU267     -0.2457
    144  N         47.9030   78.7460  -44.2370 N.3   296  ASP296     -0.1239
    145  CA        48.0680   79.2840  -45.5680 C.3   296  ASP296      0.1674
    146  C         49.4990   79.4210  -46.0740 C.2   296  ASP296      0.2266
    147  O         50.2890   80.2010  -45.5450 O.2   296  ASP296     -0.2867
    148  CB        47.3610   80.6350  -45.6440 C.3   296  ASP296      0.1410
    149  CG        47.4480   81.2590  -47.0200 C.2   296  ASP296      0.3668
    150  OD1       47.3630   80.5250  -48.0210 O.co2 296  ASP296     -0.2456
    151  OD2       47.5870   82.4920  -47.1090 O.co2 296  ASP296     -0.2456
    152  N         49.2920   93.1250  -59.8470 N.3   346  MET346     -0.1245
    153  CA        49.1570   94.5770  -59.8150 C.3   346  MET346      0.1570
    154  C         50.5050   95.3010  -59.8290 C.2   346  MET346      0.2261
    155  O         50.6000   96.4580  -59.4090 O.2   346  MET346     -0.2867
    156  CB        48.3610   94.9900  -58.5650 C.3   346  MET346      0.0387
    157  CG        49.0850   94.7510  -57.2200 C.3   346  MET346      0.0595
    158  SD        48.2300   95.4260  -55.7780 S.3   346  MET346     -0.1393
    159  CE        48.5900   97.1760  -55.9300 C.3   346  MET346      0.0692
@<TRIPOS>BOND
     1   152   153    1
     2   154   153    1
     3   154   155    2
     4   153   156    1
     5   156   157    1
     6   117   116    2
     7   127   125    1
     8   157   158    1
     9   125   124    1
    10     3     4    2
    11     3     2    1
    12   116   115    1
    13   116   120   am
    14   124   121    1
    15   124   126    1
    16   115   118    1
    17   115   114    1
    18   159   158    1
    19     2     1    1
    20     2     5    1
    21   118   119    1
    22   121   120    1
    23   121   122    1
    24     5     6    1
    25   122   128   am
    26   122   123    2
    27   128   129    1
    28     8     6   ar
    29     8    10   ar
    30     6     7   ar
    31   129   130    1
    32   129   132    1
    33   131   130    2
    34    10     9   ar
    35   133   132    1
    36     7     9   ar
    37   132   134    1
    38    47    46   ar
    39   139   140    1
    40   139   136    1
    41   135   136    1
    42    48    46   ar
    43    46    45    1
    44   140   141    1
    45   142   141   ar
    46    11    12    1
    47   136   137    1
    48    45    42    1
    49   141   143   ar
    50    29    31   ar
    51    29    27   ar
    52    34    35    2
    53    34    33    1
    54    31    30   ar
    55    27    26    1
    56    27    28   ar
    57    26    23    1
    58    30    28   ar
    59   105   103    1
    60    12    13    1
    61   137   138    2
    62   150   149   ar
    63    36    33    1
    64    36    37    1
    65    33    32    1
    66    32    24   am
    67    42    43    1
    68    42    41    1
    69    25    24    2
    70    24    23    1
    71    44    43    2
    72   103   104    1
    73   103   102    2
    74    13    14    2
    75    13    15   am
    76    23    22    1
    77    43    49   am
    78   151   149   ar
    79   149   148    1
    80    22    17   am
    81    15    16    1
    82    37    38    1
    83   102   101    1
    84    49    50    1
    85    59    60    1
    86    59    56    1
    87   146   145    1
    88   146   147    2
    89    50    51    1
    90    50    53    1
    91    55    51   am
    92    55    56    1
    93    17    16    1
    94    17    18    2
    95   148   145    1
    96   145   144    1
    97    16    19    1
    98    39    38   ar
    99    51    52    2
   100    38    40   ar
   101    56    57    1
   102   101   100    1
   103    53    54    1
   104    94    92   am
   105    20    19    1
   106    93    92    2
   107    19    21    1
   108   108   107    1
   109   108   109    2
   110    92    91    1
   111   100    99    1
   112   107   106    1
   113   107   110    1
   114    57    61   am
   115    57    58    2
   116    91    88    1
   117    61    62    1
   118   111   110    1
   119   111   112    1
   120    99    96    1
   121   113   112    1
   122    87    88    1
   123    88    89    1
   124    62    65    1
   125    62    63    1
   126    96    97    1
   127    96    95    1
   128    65    66    1
   129    64    63    2
   130    83    85   ar
   131    83    81   ar
   132    80    81    1
   133    80    77    1
   134    98    97    2
   135    85    86   ar
   136    81    82   ar
   137    86    84   ar
   138    82    84   ar
   139    89    90    2
   140    66    67    1
   141    79    78    2
   142    78    77    1
   143    75    74    1
   144    77    76    1
   145    74    71    1
   146    67    68    2
   147    67    69   am
   148    71    70    1
   149    71    72    1
   150    72    73    2
