@<TRIPOS>MOLECULE
tmp/1nfbB00.pdb
 156 147 0 0 0
SMALL
GASTEIGER

@<TRIPOS>ATOM
      1  N         43.4490   79.0580  -52.4380 N.3    59  SER59      -0.1217
      2  CA        43.8360   80.4580  -52.2550 C.3    59  SER59       0.1889
      3  C         43.2330   81.5550  -53.1510 C.2    59  SER59       0.2288
      4  O         42.9940   81.3460  -54.3380 O.2    59  SER59      -0.2866
      5  CB        45.3640   80.5460  -52.3470 C.3    59  SER59       0.2089
      6  OG        45.8400   81.8330  -52.0040 O.3    59  SER59      -0.2183
      7  N         44.0860   83.6650  -55.0120 N.3    61  MET61      -0.1245
      8  CA        45.1100   84.1510  -55.9270 C.3    61  MET61       0.1570
      9  C         44.5530   84.2480  -57.3340 C.2    61  MET61       0.2261
     10  O         43.8200   83.3640  -57.7840 O.2    61  MET61      -0.2867
     11  CB        46.3130   83.2200  -55.9040 C.3    61  MET61       0.0387
     12  CG        47.1790   83.3450  -54.6580 C.3    61  MET61       0.0595
     13  SD        48.3350   81.9620  -54.5530 S.3    61  MET61      -0.1393
     14  CE        48.9520   81.8470  -56.2300 C.3    61  MET61       0.0692
     15  N         49.3630   90.8720  -45.8290 N.3   208  SER208     -0.1217
     16  CA        50.6130   90.2820  -45.4050 C.3   208  SER208      0.1889
     17  C         50.8030   90.4190  -43.8980 C.2   208  SER208      0.2288
     18  O         51.2940   89.5020  -43.2470 O.2   208  SER208     -0.2866
     19  CB        51.7810   90.9420  -46.1200 C.3   208  SER208      0.2089
     20  OG        52.0020   92.2490  -45.6290 O.3   208  SER208     -0.2183
     21  N         46.8820   87.9990  -42.4390 N.3   235  ASN235     -0.1240
     22  CA        47.9060   87.0000  -42.1630 C.3   235  ASN235      0.1653
     23  C         48.7290   87.2630  -40.9100 C.2   235  ASN235      0.2266
     24  O         49.2740   88.3490  -40.7430 O.2   235  ASN235     -0.2867
     25  CB        48.8140   86.8390  -43.3700 C.3   235  ASN235      0.1155
     26  CG        48.4710   85.6090  -44.1770 C.2   235  ASN235      0.2627
     27  OD1       47.3020   85.2820  -44.3630 O.2   235  ASN235     -0.2716
     28  ND2       49.4900   84.9180  -44.6660 N.am  235  ASN235     -0.0877
     29  N         44.1540   83.3030  -40.5440 N.3   254  ARG254     -0.1245
     30  CA        44.8410   82.7790  -41.6940 C.3   254  ARG254      0.1563
     31  C         46.3120   82.9260  -41.3810 C.2   254  ARG254      0.2260
     32  O         46.8310   84.0370  -41.4410 O.2   254  ARG254     -0.2867
     33  CB        44.4710   83.6070  -42.8750 C.3   254  ARG254      0.0307
     34  CG        44.8840   83.0320  -44.1420 C.3   254  ARG254      0.0489
     35  CD        44.8510   84.1580  -45.0730 C.3   254  ARG254      0.2205
     36  NE        44.9850   83.7760  -46.4550 N.pl3 254  ARG254     -0.0865
     37  CZ        45.0070   84.6760  -47.4210 C.cat 254  ARG254      0.5346
     38  NH1       44.9140   85.9730  -47.1120 N.pl3 254  ARG254      0.1354
     39  NH2       45.0720   84.2860  -48.6750 N.pl3 254  ARG254      0.1354
     40  N         56.2820   82.5910  -47.0090 N.3   259  SER259     -0.1202
     41  CA        56.0810   81.2090  -47.4100 C.3   259  SER259      0.2020
     42  C         55.1940   81.1110  -48.6710 C.2   259  SER259      0.2619
     43  O         54.3190   81.9540  -48.9210 O.2   259  SER259     -0.2717
     44  CB        55.4540   80.4440  -46.2350 C.3   259  SER259      0.2103
     45  OG        55.2220   79.0830  -46.5420 O.3   259  SER259     -0.2182
     46  N         55.4380   80.0910  -49.4820 N.am  260  GLY260     -0.1942
     47  CA        54.6440   79.9240  -50.6810 C.3   260  GLY260      0.2014
     48  C         55.1150   80.7750  -51.8420 C.2   260  GLY260      0.2640
     49  O         56.3160   80.9790  -52.0200 O.2   260  GLY260     -0.2714
     50  N         54.1600   81.2670  -52.6280 N.am  261  SER261     -0.1935
     51  CA        54.4530   82.0770  -53.8000 C.3   261  SER261      0.2055
     52  C         54.5900   83.5640  -53.4600 C.2   261  SER261      0.2643
     53  O         53.9230   84.0840  -52.5630 O.2   261  SER261     -0.2714
     54  CB        53.3530   81.8700  -54.8530 C.3   261  SER261      0.2130
     55  OG        52.5670   80.7210  -54.5630 O.3   261  SER261     -0.2179
     56  N         55.4750   84.2380  -54.1820 N.am  262  ILE262     -0.1963
     57  CA        55.7130   85.6610  -53.9900 C.3   262  ILE262      0.1727
     58  C         55.0700   86.4000  -55.1590 C.2   262  ILE262      0.2616
     59  O         54.7420   85.7870  -56.1800 O.2   262  ILE262     -0.2715
     60  CB        57.2230   85.9560  -53.9920 C.3   262  ILE262      0.0290
     61  CG1       57.9470   84.9260  -53.1090 C.3   262  ILE262      0.0022
     62  CG2       57.4780   87.3810  -53.5200 C.3   262  ILE262      0.0023
     63  CD1       59.4580   85.1190  -52.9900 C.3   262  ILE262      0.0001
     64  N         54.8740   87.7060  -55.0140 N.am  263  CYS263     -0.1954
     65  CA        54.2860   88.4950  -56.0970 C.3   263  CYS263      0.1843
     66  C         55.2590   89.6260  -56.4430 C.2   263  CYS263      0.2625
     67  O         55.8360   89.6570  -57.5370 O.2   263  CYS263     -0.2714
     68  CB        52.9070   89.0500  -55.6890 C.3   263  CYS263      0.0997
     69  SG        51.5710   87.7860  -55.5920 S.3   263  CYS263     -0.0797
     70  N         55.4290   90.5490  -55.5020 N.am  264  ILE264     -0.1977
     71  CA        56.3550   91.6640  -55.6470 C.3   264  ILE264      0.1596
     72  C         56.8330   91.9550  -54.2330 C.2   264  ILE264      0.2287
     73  O         56.6370   91.1320  -53.3360 O.2   264  ILE264     -0.2864
     74  CB        55.6860   92.9290  -56.2500 C.3   264  ILE264      0.0276
     75  CG1       56.7680   93.9450  -56.6380 C.3   264  ILE264      0.0022
     76  CG2       54.7140   93.5490  -55.2460 C.3   264  ILE264      0.0022
     77  CD1       56.2650   95.1110  -57.4750 C.3   264  ILE264      0.0001
     78  N         58.7150   88.9760  -49.9030 N.3   267  GLU267     -0.1245
     79  CA        58.0560   87.8710  -49.2160 C.3   267  GLU267      0.1567
     80  C         58.9330   87.4440  -48.0260 C.2   267  GLU267      0.2260
     81  O         58.4330   87.1570  -46.9290 O.2   267  GLU267     -0.2867
     82  CB        57.8510   86.6970  -50.1920 C.3   267  GLU267      0.0388
     83  CG        57.0240   85.5090  -49.6670 C.3   267  GLU267      0.1160
     84  CD        55.6860   85.9130  -49.0540 C.2   267  GLU267      0.3649
     85  OE1       55.2070   87.0350  -49.3390 O.co2 267  GLU267     -0.2457
     86  OE2       55.1050   85.0990  -48.2960 O.co2 267  GLU267     -0.2457
     87  N         47.9030   78.7460  -44.2370 N.3   296  ASP296     -0.1225
     88  CA        48.0680   79.2840  -45.5680 C.3   296  ASP296      0.1805
     89  C         49.4990   79.4210  -46.0740 C.2   296  ASP296      0.2598
     90  O         50.2890   80.2010  -45.5450 O.2   296  ASP296     -0.2718
     91  CB        47.3610   80.6350  -45.6440 C.3   296  ASP296      0.1424
     92  CG        47.4480   81.2590  -47.0200 C.2   296  ASP296      0.3668
     93  OD1       47.3630   80.5250  -48.0210 O.co2 296  ASP296     -0.2456
     94  OD2       47.5870   82.4920  -47.1090 O.co2 296  ASP296     -0.2456
     95  N         49.8290   78.6590  -47.1120 N.am  297  GLY297     -0.1942
     96  CA        51.1610   78.7350  -47.6880 C.3   297  GLY297      0.2014
     97  C         52.1320   77.6030  -47.3870 C.2   297  GLY297      0.2639
     98  O         52.1150   77.0000  -46.3120 O.2   297  GLY297     -0.2714
     99  N         52.9780   77.3080  -48.3660 N.am  298  GLY298     -0.1939
    100  CA        53.9810   76.2760  -48.2010 C.3   298  GLY298      0.2014
    101  C         53.5360   74.8250  -48.2400 C.2   298  GLY298      0.2638
    102  O         54.0100   74.0080  -47.4440 O.2   298  GLY298     -0.2714
    103  N         52.6460   74.4780  -49.1580 N.am  299  ILE299     -0.1977
    104  CA        52.2050   73.1030  -49.2370 C.3   299  ILE299      0.1596
    105  C         52.6220   72.5800  -50.5750 C.2   299  ILE299      0.2287
    106  O         52.2370   73.1370  -51.5960 O.2   299  ILE299     -0.2864
    107  CB        50.7030   72.9990  -49.1550 C.3   299  ILE299      0.0276
    108  CG1       50.2270   73.4600  -47.7860 C.3   299  ILE299      0.0022
    109  CG2       50.2810   71.5590  -49.3760 C.3   299  ILE299      0.0022
    110  CD1       50.5600   72.4970  -46.6740 C.3   299  ILE299      0.0001
    111  N         45.2210   75.9450  -46.7790 N.3   317  MET317     -0.1230
    112  CA        45.0230   76.6700  -48.0090 C.3   317  MET317      0.1702
    113  C         46.1780   76.3810  -48.9410 C.2   317  MET317      0.2592
    114  O         47.3350   76.3610  -48.5320 O.2   317  MET317     -0.2718
    115  CB        44.9600   78.1530  -47.7020 C.3   317  MET317      0.0401
    116  CG        44.8240   79.0350  -48.8890 C.3   317  MET317      0.0596
    117  SD        44.4400   80.6960  -48.2930 S.3   317  MET317     -0.1393
    118  CE        42.6540   80.5790  -48.1440 C.3   317  MET317      0.0692
    119  N         45.8610   76.1390  -50.1970 N.am  318  MET318     -0.1965
    120  CA        46.8830   75.8740  -51.1850 C.3   318  MET318      0.1736
    121  C         46.6510   76.7530  -52.4040 C.2   318  MET318      0.2617
    122  O         45.5240   77.1320  -52.7240 O.2   318  MET318     -0.2715
    123  CB        46.8760   74.3890  -51.5470 C.3   318  MET318      0.0427
    124  CG        45.4940   73.7680  -51.5550 C.3   318  MET318      0.0599
    125  SD        45.4770   72.1290  -50.8100 S.3   318  MET318     -0.1393
    126  CE        46.6710   71.3190  -51.8710 C.3   318  MET318      0.0692
    127  N         47.7340   77.1170  -53.0640 N.am  319  GLY319     -0.1940
    128  CA        47.6040   77.9340  -54.2500 C.3   319  GLY319      0.2014
    129  C         48.2570   77.1540  -55.3640 C.2   319  GLY319      0.2640
    130  O         47.6260   76.3190  -56.0170 O.2   319  GLY319     -0.2714
    131  N         49.5420   77.4110  -55.5500 N.am  320  SER320     -0.1935
    132  CA        50.3180   76.7410  -56.5650 C.3   320  SER320      0.2055
    133  C         49.9720   75.2600  -56.7020 C.2   320  SER320      0.2642
    134  O         49.6020   74.8060  -57.7850 O.2   320  SER320     -0.2714
    135  CB        51.7790   76.9100  -56.2300 C.3   320  SER320      0.2130
    136  OG        51.8640   77.4030  -54.9180 O.3   320  SER320     -0.2179
    137  N         50.0750   74.5040  -55.6160 N.am  321  LEU321     -0.1977
    138  CA        49.7730   73.0800  -55.6870 C.3   321  LEU321      0.1596
    139  C         48.4840   72.7710  -56.4520 C.2   321  LEU321      0.2287
    140  O         48.2780   71.6400  -56.9130 O.2   321  LEU321     -0.2864
    141  CB        49.6970   72.4880  -54.2820 C.3   321  LEU321      0.0297
    142  CG        49.5010   70.9690  -54.2010 C.3   321  LEU321      0.0022
    143  CD1       50.5680   70.2300  -55.0210 C.3   321  LEU321      0.0001
    144  CD2       49.5770   70.5550  -52.7390 C.3   321  LEU321      0.0001
    145  N         52.1500   83.7990  -63.9480 N.3   343  TYR343     -0.1241
    146  CA        51.5180   84.4030  -62.7800 C.3   343  TYR343      0.1605
    147  C         51.7200   85.9040  -62.9810 C.2   343  TYR343      0.2264
    148  O         52.8320   86.3480  -63.2660 O.2   343  TYR343     -0.2867
    149  CB        52.1860   83.9410  -61.4700 C.3   343  TYR343      0.0534
    150  CG        51.3730   84.2630  -60.2230 C.ar  343  TYR343     -0.0201
    151  CD1       49.9780   84.2900  -60.2750 C.ar  343  TYR343     -0.0009
    152  CD2       51.9900   84.5130  -58.9930 C.ar  343  TYR343     -0.0009
    153  CE1       49.2150   84.5570  -59.1460 C.ar  343  TYR343      0.0417
    154  CE2       51.2280   84.7800  -57.8440 C.ar  343  TYR343      0.0417
    155  CZ        49.8400   84.8010  -57.9350 C.ar  343  TYR343      0.1957
    156  OH        49.0650   85.0670  -56.8280 O.3   343  TYR343     -0.2866
@<TRIPOS>BOND
     1   145   146    1
     2   148   147    2
     3   147   146    1
     4   146   149    1
     5   149   150    1
     6   151   150   ar
     7   151   153   ar
     8   150   152   ar
     9   153   155   ar
    10   152   154   ar
    11   155   154   ar
    12   155   156    1
    13   134   133    2
    14    10     9    2
    15    67    66    2
    16    77    75    1
    17     9     8    1
    18   140   139    2
    19   133   132    1
    20   133   137   am
    21    75    74    1
    22   132   135    1
    23   132   131    1
    24   139   138    1
    25    66    65    1
    26    66    70   am
    27    74    71    1
    28    74    76    1
    29    14    13    1
    30   135   136    1
    31    59    58    2
    32    65    68    1
    33    65    64    1
    34   130   129    2
    35     8    11    1
    36     8     7    1
    37    11    12    1
    38    68    69    1
    39   138   137    1
    40   138   141    1
    41    71    70    1
    42    71    72    1
    43   131   129   am
    44   129   128    1
    45    58    64   am
    46    58    57    1
    47   143   142    1
    48    54    55    1
    49    54    51    1
    50    12    13    1
    51     4     3    2
    52   141   142    1
    53   128   127    1
    54    72    73    2
    55   142   144    1
    56    56    57    1
    57    56    52   am
    58    60    57    1
    59    60    62    1
    60    60    61    1
    61    51    52    1
    62    51    50    1
    63    52    53    2
    64     3     2    1
    65    61    63    1
    66   127   121   am
    67   122   121    2
    68    50    48   am
    69     1     2    1
    70   121   120    1
    71     5     2    1
    72     5     6    1
    73    49    48    2
    74   126   125    1
    75    48    47    1
    76   106   105    2
    77   124   123    1
    78   124   125    1
    79   123   120    1
    80   120   119    1
    81    47    46    1
    82   105   104    1
    83   119   113   am
    84    82    83    1
    85    82    79    1
    86    78    79    1
    87    83    84    1
    88    46    42   am
    89   109   107    1
    90    85    84   ar
    91   104   103    1
    92   104   107    1
    93    79    80    1
    94   103   101   am
    95   107   108    1
    96    84    86   ar
    97   113   114    2
    98   113   112    1
    99    43    42    2
   100   116   117    1
   101   116   115    1
   102    39    37    1
   103    42    41    1
   104    99   100    1
   105    99    97   am
   106   117   118    1
   107   101   100    1
   108   101   102    2
   109    80    81    2
   110    93    92   ar
   111   112   115    1
   112   112   111    1
   113   108   110    1
   114    96    97    1
   115    96    95    1
   116    37    38    1
   117    37    36    2
   118    41    40    1
   119    41    44    1
   120    97    98    2
   121    95    89   am
   122    94    92   ar
   123    92    91    1
   124    45    44    1
   125    36    35    1
   126    19    20    1
   127    19    16    1
   128    89    88    1
   129    89    90    2
   130    15    16    1
   131    91    88    1
   132    88    87    1
   133    16    17    1
   134    35    34    1
   135    28    26   am
   136    27    26    2
   137    26    25    1
   138    34    33    1
   139    17    18    2
   140    25    22    1
   141    33    30    1
   142    21    22    1
   143    22    23    1
   144    30    31    1
   145    30    29    1
   146    32    31    2
   147    23    24    2
