@<TRIPOS>MOLECULE
tmp/1nfpA00.pdb
 108 104 0 0 0
SMALL
GASTEIGER

@<TRIPOS>ATOM
      1  N          6.6600    1.2740   16.3790 N.3    60  THR60      -0.1203
      2  CA         7.2260    2.6250   16.1640 C.3    60  THR60       0.1994
      3  C          6.5130    3.4500   17.2590 C.2    60  THR60       0.2618
      4  O          5.4720    3.0210   17.7860 O.2    60  THR60      -0.2717
      5  CB         7.0850    3.1970   14.7320 C.3    60  THR60       0.1784
      6  OG1        5.6430    3.1800   14.5610 O.3    60  THR60      -0.2211
      7  CG2        7.8560    2.2910   13.7550 C.3    60  THR60       0.0376
      8  N          7.1300    4.5590   17.6160 N.am   61  LYS61      -0.1965
      9  CA         6.6540    5.4090   18.7090 C.3    61  LYS61       0.1728
     10  C          6.1100    6.7560   18.2620 C.2    61  LYS61       0.2616
     11  O          6.6150    7.3010   17.2560 O.2    61  LYS61      -0.2715
     12  CB         7.8840    5.6850   19.6460 C.3    61  LYS61       0.0311
     13  CG         8.5500    4.4140   20.1110 C.3    61  LYS61       0.0038
     14  CD         8.5600    4.1470   21.5920 C.3    61  LYS61       0.0206
     15  CE         9.8740    4.5690   22.2500 C.3    61  LYS61       0.1093
     16  NZ         9.6460    5.6220   23.2910 N.3    61  LYS61      -0.1314
     17  N          5.1500    7.2660   19.0550 N.am   62  LEU62      -0.1963
     18  CA         4.6420    8.6240   18.7640 C.3    62  LEU62       0.1728
     19  C          5.8290    9.5890   18.9190 C.2    62  LEU62       0.2616
     20  O          6.6230    9.4320   19.9100 O.2    62  LEU62      -0.2715
     21  CB         3.5360    8.8480   19.8530 C.3    62  LEU62       0.0311
     22  CG         2.6740   10.0940   19.6090 C.3    62  LEU62       0.0022
     23  CD1        1.8580    9.9760   18.3260 C.3    62  LEU62       0.0001
     24  CD2        1.7520   10.3190   20.7910 C.3    62  LEU62       0.0001
     25  N          6.0090   10.5480   18.0440 N.am   63  ALA63      -0.1964
     26  CA         7.1340   11.5260   18.1320 C.3    63  ALA63       0.1713
     27  C          6.8390   12.4120   19.3330 C.2    63  ALA63       0.2458
     28  O          5.7110   12.9190   19.4910 O.2    63  ALA63      -0.2730
     29  CB         7.2480   12.2620   16.8100 C.3    63  ALA63       0.0333
     30  N          7.8300   12.6010   20.2160 N.am   64  PRO64      -0.2716
     31  CA         7.6350   13.3550   21.4570 C.3    64  PRO64       0.1536
     32  C          7.6510   14.8440   21.3750 C.2    64  PRO64       0.2598
     33  O          8.4170   15.5830   22.0160 O.2    64  PRO64      -0.2715
     34  CB         8.6350   12.6910   22.4290 C.3    64  PRO64       0.0310
     35  CG         9.7820   12.3200   21.5190 C.3    64  PRO64       0.0237
     36  CD         9.1710   11.9910   20.1510 C.3    64  PRO64       0.0939
     37  N          6.7220   15.3800   20.5740 N.am   65  PHE65      -0.1974
     38  CA         6.5480   16.8270   20.3890 C.3    65  PHE65       0.1639
     39  C          5.6190   17.3460   21.4900 C.2    65  PHE65       0.2290
     40  O          4.6690   16.6420   21.8380 O.2    65  PHE65      -0.2864
     41  CB         5.9240   17.2090   19.0360 C.3    65  PHE65       0.0560
     42  CG         6.7830   16.8860   17.8430 C.ar   65  PHE65      -0.0200
     43  CD1        8.0420   17.4660   17.7190 C.ar   65  PHE65      -0.0042
     44  CD2        6.3000   15.9920   16.8750 C.ar   65  PHE65      -0.0042
     45  CE1        8.8300   17.1570   16.6070 C.ar   65  PHE65      -0.0003
     46  CE2        7.0790   15.6710   15.7720 C.ar   65  PHE65      -0.0003
     47  CZ         8.3330   16.2710   15.6340 C.ar   65  PHE65      -0.0000
     48  N         10.7390   19.3810   21.8140 N.3    74  VAL74      -0.1245
     49  CA        10.8510   17.9150   21.7130 C.3    74  VAL74       0.1561
     50  C         11.2130   17.4450   23.1350 C.2    74  VAL74       0.2260
     51  O         12.1930   18.0210   23.6970 O.2    74  VAL74      -0.2867
     52  CB        11.8870   17.4820   20.6580 C.3    74  VAL74       0.0252
     53  CG1       12.0360   15.9690   20.5930 C.3    74  VAL74       0.0019
     54  CG2       11.5960   18.0420   19.2540 C.3    74  VAL74       0.0019
     55  N         14.0180   12.7400   25.5070 N.3    77  THR77      -0.1203
     56  CA        13.8410   11.3850   25.9590 C.3    77  THR77       0.1994
     57  C         15.0340   10.4520   25.8200 C.2    77  THR77       0.2618
     58  O         15.0060    9.3750   26.4370 O.2    77  THR77      -0.2717
     59  CB        12.5610   10.7290   25.2420 C.3    77  THR77       0.1784
     60  OG1       12.9080   10.7360   23.8260 O.3    77  THR77      -0.2211
     61  CG2       11.2620   11.4880   25.5430 C.3    77  THR77       0.0376
     62  N         15.9950   10.8470   24.9970 N.am   78  SER78      -0.1951
     63  CA        17.1680    9.9490   24.7680 C.3    78  SER78       0.1924
     64  C         18.1460   10.7570   23.9440 C.2    78  SER78       0.2314
     65  O         17.7750   11.7800   23.3310 O.2    78  SER78      -0.2863
     66  CB        16.7050    8.6970   24.0200 C.3    78  SER78       0.2116
     67  OG        16.4290    9.0060   22.6510 O.3    78  SER78      -0.2180
     68  N         16.9710   11.0600   20.3210 N.3    81  THR81      -0.1218
     69  CA        15.8640   11.9840   20.1150 C.3    81  THR81       0.1862
     70  C         16.3710   13.4190   20.1300 C.2    81  THR81       0.2287
     71  O         15.8930   14.2620   19.3630 O.2    81  THR81      -0.2866
     72  CB        14.6120   11.7380   21.0340 C.3    81  THR81       0.1770
     73  OG1       14.1240   10.4190   20.6610 O.3    81  THR81      -0.2211
     74  CG2       13.5710   12.8700   20.9610 C.3    81  THR81       0.0375
     75  N         17.7440   14.3210   16.7830 N.3    84  LYS84      -0.1231
     76  CA        16.6660   14.6240   15.8270 C.3    84  LYS84       0.1693
     77  C         16.1710   16.0320   16.0270 C.2    84  LYS84       0.2591
     78  O         15.9150   16.7410   15.0330 O.2    84  LYS84      -0.2718
     79  CB        15.5090   13.6230   15.9660 C.3    84  LYS84       0.0285
     80  CG        16.0190   12.2950   15.4760 C.3    84  LYS84       0.0035
     81  CD        14.9860   11.1990   15.3610 C.3    84  LYS84       0.0206
     82  CE        15.7650    9.8730   15.5720 C.3    84  LYS84       0.1093
     83  NZ        15.1640    8.8280   14.7450 N.3    84  LYS84      -0.1314
     84  N         16.0820   16.5000   17.2730 N.am   85  ALA85      -0.1980
     85  CA        15.7070   17.8940   17.5210 C.3    85  ALA85       0.1597
     86  C         16.7910   18.8650   17.0230 C.2    85  ALA85       0.2287
     87  O         16.4840   19.9270   16.5010 O.2    85  ALA85      -0.2864
     88  CB        15.3600   18.2110   18.9560 C.3    85  ALA85       0.0319
     89  N         16.8850   20.1160   13.3050 N.3    88  TYR88      -0.1241
     90  CA        16.0490   21.2550   12.9460 C.3    88  TYR88       0.1605
     91  C         16.1880   22.4490   13.8440 C.2    88  TYR88       0.2264
     92  O         15.3840   23.4080   13.6710 O.2    88  TYR88      -0.2867
     93  CB        14.5370   20.8590   12.9140 C.3    88  TYR88       0.0534
     94  CG        14.2490   19.7120   11.9960 C.ar   88  TYR88      -0.0201
     95  CD1       14.2370   19.9960   10.5990 C.ar   88  TYR88      -0.0009
     96  CD2       14.0330   18.4240   12.3970 C.ar   88  TYR88      -0.0009
     97  CE1       14.0140   18.9640    9.6880 C.ar   88  TYR88       0.0417
     98  CE2       13.8160   17.3750   11.4930 C.ar   88  TYR88       0.0417
     99  CZ        13.7980   17.6890   10.1280 C.ar   88  TYR88       0.1957
    100  OH        13.5900   16.7090    9.1940 O.3    88  TYR88      -0.2866
    101  N         15.3550   22.6860   16.9350 N.3    90  MET90      -0.1245
    102  CA        14.1580   22.7740   17.8040 C.3    90  MET90       0.1570
    103  C         14.5830   22.7390   19.2800 C.2    90  MET90       0.2261
    104  O         15.5680   22.0750   19.6570 O.2    90  MET90      -0.2867
    105  CB        13.2030   21.6110   17.4640 C.3    90  MET90       0.0387
    106  CG        12.7270   21.7800   16.0320 C.3    90  MET90       0.0595
    107  SD        11.5100   20.4290   15.7230 S.3    90  MET90      -0.1393
    108  CE        10.1370   21.1120   16.7240 C.3    90  MET90       0.0692
@<TRIPOS>BOND
     1   100    99    1
     2    97    99   ar
     3    97    95   ar
     4    99    98   ar
     5    95    94   ar
     6    98    96   ar
     7    94    96   ar
     8    94    93    1
     9    93    90    1
    10    90    89    1
    11    90    91    1
    12    92    91    2
    13     7     5    1
    14     6     5    1
    15     5     2    1
    16    83    82    1
    17    78    77    2
    18    81    80    1
    19    81    82    1
    20    80    79    1
    21    47    46   ar
    22    47    45   ar
    23   107   106    1
    24   107   108    1
    25    46    44   ar
    26    76    79    1
    27    76    77    1
    28    76    75    1
    29    77    84   am
    30   106   105    1
    31     2     1    1
    32     2     3    1
    33    87    86    2
    34    45    43   ar
    35    29    26    1
    36    44    42   ar
    37   101   102    1
    38    86    85    1
    39    11    10    2
    40     3     8   am
    41     3     4    2
    42    84    85    1
    43   105   102    1
    44    85    88    1
    45     8     9    1
    46    43    42   ar
    47   102   103    1
    48    42    41    1
    49    25    26    1
    50    25    19   am
    51    26    27    1
    52    10     9    1
    53    10    17   am
    54    23    22    1
    55     9    12    1
    56    18    19    1
    57    18    17    1
    58    18    21    1
    59    19    20    2
    60    41    38    1
    61    54    52    1
    62   103   104    2
    63    27    28    2
    64    27    30   am
    65    71    70    2
    66    22    21    1
    67    22    24    1
    68    12    13    1
    69    13    14    1
    70    69    70    1
    71    69    68    1
    72    69    72    1
    73    36    30    1
    74    36    35    1
    75    30    31    1
    76    38    37    1
    77    38    39    1
    78    37    32   am
    79    53    52    1
    80    52    49    1
    81    73    72    1
    82    74    72    1
    83    32    31    1
    84    32    33    2
    85    31    34    1
    86    39    40    2
    87    35    34    1
    88    14    15    1
    89    49    48    1
    90    49    50    1
    91    15    16    1
    92    67    66    1
    93    50    51    2
    94    65    64    2
    95    60    59    1
    96    64    63    1
    97    66    63    1
    98    63    62    1
    99    62    57   am
   100    59    61    1
   101    59    56    1
   102    55    56    1
   103    57    56    1
   104    57    58    2
