@<TRIPOS>MOLECULE
tmp/1nfpA02.pdb
 121 116 0 0 0
SMALL
GASTEIGER

@<TRIPOS>ATOM
      1  N         22.4910   38.5990   29.9340 N.3     1  MET1       -0.1230
      2  CA        21.2610   38.3960   30.7170 C.3     1  MET1        0.1702
      3  C         20.1400   38.3700   29.6670 C.2     1  MET1        0.2593
      4  O         20.2690   39.0180   28.6180 O.2     1  MET1       -0.2718
      5  CB        20.9630   39.3540   31.8250 C.3     1  MET1        0.0401
      6  CG        22.1690   39.5760   32.7280 C.3     1  MET1        0.0596
      7  SD        21.4540   40.6340   34.0350 S.3     1  MET1       -0.1393
      8  CE        20.5170   39.3260   34.8660 C.3     1  MET1        0.0692
      9  N         19.1540   37.5670   30.0460 N.am    2  THR2       -0.1953
     10  CA        18.0080   37.4430   29.1160 C.3     2  THR2        0.1897
     11  C         16.7650   37.2150   29.9540 C.2     2  THR2        0.2313
     12  O         16.8980   36.8190   31.1440 O.2     2  THR2       -0.2863
     13  CB        18.3710   36.3300   28.0600 C.3     2  THR2        0.1794
     14  OG1       17.4800   36.6480   26.9300 O.3     2  THR2       -0.2208
     15  CG2       18.2940   34.9000   28.5220 C.3     2  THR2        0.0378
     16  N         14.0700   35.2450   31.4580 N.3     4  TRP4       -0.1241
     17  CA        13.7740   33.8240   31.7220 C.3     4  TRP4        0.1605
     18  C         12.2150   33.7840   31.7990 C.2     4  TRP4        0.2264
     19  O         11.6160   34.7100   32.3600 O.2     4  TRP4       -0.2867
     20  CB        14.4330   33.3190   33.0150 C.3     4  TRP4        0.0550
     21  CG        15.9200   33.1840   32.8830 C.ar    4  TRP4        0.0003
     22  CD1       16.6690   33.5050   31.7790 C.ar    4  TRP4        0.0946
     23  CD2       16.8580   32.7470   33.8750 C.ar    4  TRP4        0.0152
     24  NE1       18.0250   33.2610   32.0070 N.ar    4  TRP4       -0.2442
     25  CE2       18.1490   32.7870   33.2840 C.ar    4  TRP4        0.0810
     26  CE3       16.7180   32.2730   35.1780 C.ar    4  TRP4        0.0012
     27  CZ2       19.3000   32.4180   33.9690 C.ar    4  TRP4        0.0191
     28  CZ3       17.8710   31.8890   35.8710 C.ar    4  TRP4        0.0001
     29  CH2       19.1240   31.9490   35.2500 C.ar    4  TRP4        0.0015
     30  N          8.6410   31.5240   32.6140 N.3     6  TYR6       -0.1241
     31  CA         8.0900   30.5740   33.6020 C.3     6  TYR6        0.1605
     32  C          6.7280   30.0970   33.1180 C.2     6  TYR6        0.2264
     33  O          6.0030   30.6610   32.2760 O.2     6  TYR6       -0.2867
     34  CB         7.9750   31.3450   34.9490 C.3     6  TYR6        0.0534
     35  CG         9.3220   31.9090   35.3760 C.ar    6  TYR6       -0.0201
     36  CD1       10.2330   31.0820   36.0430 C.ar    6  TYR6       -0.0009
     37  CD2        9.6610   33.2400   35.0960 C.ar    6  TYR6       -0.0009
     38  CE1       11.5090   31.5800   36.4240 C.ar    6  TYR6        0.0417
     39  CE2       10.9180   33.7430   35.4890 C.ar    6  TYR6        0.0417
     40  CZ        11.8200   32.8860   36.1450 C.ar    6  TYR6        0.1957
     41  OH        13.0490   33.3600   36.5170 O.3     6  TYR6       -0.2866
     42  N         15.4240   29.3240   45.2710 N.3   178  LEU178     -0.1231
     43  CA        15.7800   30.3800   44.3430 C.3   178  LEU178      0.1693
     44  C         17.1940   30.1200   43.7970 C.2   178  LEU178      0.2592
     45  O         17.4370   30.0030   42.6150 O.2   178  LEU178     -0.2718
     46  CB        15.6800   31.7250   45.0410 C.3   178  LEU178      0.0284
     47  CG        14.4750   32.6170   44.7790 C.3   178  LEU178      0.0019
     48  CD1       14.7240   33.9470   45.5180 C.3   178  LEU178      0.0001
     49  CD2       14.3380   32.9210   43.3000 C.3   178  LEU178      0.0001
     50  N         18.0870   30.0150   44.7640 N.am  179  HIS179     -0.1976
     51  CA        19.5120   29.7180   44.5110 C.3   179  HIS179      0.1656
     52  C         19.7400   28.3690   43.8730 C.2   179  HIS179      0.2291
     53  O         20.5520   28.2650   42.9170 O.2   179  HIS179     -0.2864
     54  CB        20.3240   29.9680   45.8430 C.3   179  HIS179      0.0771
     55  CG        20.2070   31.4910   45.9520 C.ar  179  HIS179      0.0820
     56  ND1       20.9440   32.3400   45.1510 N.ar  179  HIS179     -0.2267
     57  CD2       19.3980   32.2680   46.7140 C.ar  179  HIS179      0.1154
     58  CE1       20.5950   33.5910   45.4050 C.ar  179  HIS179      0.1986
     59  NE2       19.6880   33.5630   46.3520 N.ar  179  HIS179     -0.2212
     60  N         18.6680   28.5220   40.2550 N.3   182  ALA182     -0.1231
     61  CA        19.6280   29.3300   39.4930 C.3   182  ALA182      0.1694
     62  C         20.8870   28.5020   39.1940 C.2   182  ALA182      0.2595
     63  O         21.4470   28.5300   38.0680 O.2   182  ALA182     -0.2718
     64  CB        19.9410   30.6180   40.2140 C.3   182  ALA182      0.0304
     65  N         21.2920   27.7070   40.1510 N.am  183  GLU183     -0.1934
     66  CA        22.4490   26.8120   40.0300 C.3   183  GLU183      0.1818
     67  C         22.2440   25.7900   38.9110 C.2   183  GLU183      0.2332
     68  O         23.1350   25.5200   38.0400 O.2   183  GLU183     -0.2860
     69  CB        22.7840   26.1000   41.3400 C.2   183  GLU183      0.0097
     70  CG        23.8160   26.7150   42.2880 C.2   183  GLU183      0.0837
     71  CD        24.4730   27.9880   41.7930 C.2   183  GLU183      0.3877
     72  OE1       25.4800   27.8210   41.0360 O.co2 183  GLU183     -0.2406
     73  OE2       23.9880   29.0850   42.1030 O.co2 183  GLU183     -0.2406
     74  N         22.4230   27.2740   35.5770 N.3   186  GLN186     -0.1245
     75  CA        23.8420   27.5170   35.2240 C.3   186  GLN186      0.1566
     76  C         24.4670   26.2420   34.6740 C.2   186  GLN186      0.2260
     77  O         25.2790   26.2560   33.6980 O.2   186  GLN186     -0.2867
     78  CB        24.5850   28.1290   36.3980 C.3   186  GLN186      0.0367
     79  CG        26.0630   28.3870   36.1320 C.3   186  GLN186      0.0905
     80  CD        26.3280   29.5270   35.1630 C.2   186  GLN186      0.2608
     81  OE1       26.9830   29.2990   34.1250 O.2   186  GLN186     -0.2717
     82  NE2       25.8760   30.7620   35.4220 N.am  186  GLN186     -0.0878
     83  N         22.5040   28.3130   31.3190 N.3   190  ASN190     -0.1240
     84  CA        21.5570   29.4440   31.3260 C.3   190  ASN190      0.1653
     85  C         20.6910   29.4910   30.0530 C.2   190  ASN190      0.2266
     86  O         20.2370   30.5880   29.6540 O.2   190  ASN190     -0.2867
     87  CB        22.2550   30.7710   31.6100 C.3   190  ASN190      0.1155
     88  CG        22.8900   30.7920   32.9860 C.2   190  ASN190      0.2627
     89  OD1       24.0720   31.1260   33.0820 O.2   190  ASN190     -0.2716
     90  ND2       22.1710   30.3860   34.0060 N.am  190  ASN190     -0.0877
     91  N          8.2900   39.2950   42.4450 N.3   217  ARG217     -0.1245
     92  CA         9.7520   39.3360   42.4400 C.3   217  ARG217      0.1563
     93  C         10.2970   39.3290   41.0140 C.2   217  ARG217      0.2260
     94  O         11.2490   40.0520   40.6680 O.2   217  ARG217     -0.2867
     95  CB        10.2660   38.1110   43.2110 C.3   217  ARG217      0.0307
     96  CG        11.7760   38.1750   43.2460 C.3   217  ARG217      0.0489
     97  CD        12.3770   36.9240   43.8400 C.3   217  ARG217      0.2205
     98  NE        13.6540   37.4730   44.3610 N.pl3 217  ARG217     -0.0865
     99  CZ        13.7240   37.8190   45.6560 C.cat 217  ARG217      0.5346
    100  NH1       14.3220   38.9810   45.9420 N.pl3 217  ARG217      0.1354
    101  NH2       13.3130   37.0160   46.6240 N.pl3 217  ARG217      0.1354
    102  N         12.3930   42.1570   38.9850 N.3   221  TYR221     -0.1241
    103  CA        13.6890   41.7960   38.4090 C.3   221  TYR221      0.1605
    104  C         13.7760   42.1920   36.9400 C.2   221  TYR221      0.2264
    105  O         14.7950   42.7520   36.4920 O.2   221  TYR221     -0.2867
    106  CB        13.9690   40.3070   38.6390 C.3   221  TYR221      0.0534
    107  CG        15.3040   39.8130   38.1460 C.ar  221  TYR221     -0.0201
    108  CD1       15.5170   39.3940   36.8330 C.ar  221  TYR221     -0.0009
    109  CD2       16.3940   39.7620   39.0490 C.ar  221  TYR221     -0.0009
    110  CE1       16.7540   38.9320   36.3890 C.ar  221  TYR221      0.0417
    111  CE2       17.6350   39.2940   38.6210 C.ar  221  TYR221      0.0417
    112  CZ        17.8090   38.8950   37.2930 C.ar  221  TYR221      0.1957
    113  OH        19.0310   38.4550   36.8720 O.3   221  TYR221     -0.2866
    114  N         14.6960   43.7530   31.2610 N.3   227  LEU227     -0.1301
    115  CA        14.4340   42.4720   30.6040 C.3   227  LEU227      0.1247
    116  C         13.0790   42.4990   29.8980 C.3   227  LEU227      0.2009
    117  O         13.0010   41.7280   28.8980 O.3   227  LEU227     -0.2188
    118  CB        14.6930   41.3000   31.5260 C.3   227  LEU227      0.0217
    119  CG        16.0410   41.1380   32.1900 C.3   227  LEU227      0.0015
    120  CD1       16.0370   39.9560   33.1360 C.3   227  LEU227      0.0000
    121  CD2       17.1270   40.9870   31.1270 C.3   227  LEU227      0.0000
@<TRIPOS>BOND
     1    14    13    1
     2    13    15    1
     3    13    10    1
     4     4     3    2
     5   117   116    1
     6    10    11    1
     7    10     9    1
     8    86    85    2
     9     3     9   am
    10     3     2    1
    11   116   115    1
    12     1     2    1
    13    11    12    2
    14    85    84    1
    15   115   114    1
    16   115   118    1
    17     2     5    1
    18   121   119    1
    19    83    84    1
    20    84    87    1
    21    16    17    1
    22   118   119    1
    23    87    88    1
    24    17    18    1
    25    17    20    1
    26    22    24   ar
    27    22    21   ar
    28    18    19    2
    29     5     6    1
    30    24    25   ar
    31   119   120    1
    32    33    32    2
    33    30    31    1
    34     6     7    1
    35    21    20    1
    36    21    23   ar
    37    88    89    2
    38    88    90   am
    39    32    31    1
    40    25    23   ar
    41    25    27   ar
    42    31    34    1
    43    77    76    2
    44    23    26   ar
    45    27    29   ar
    46     7     8    1
    47    81    80    2
    48    76    75    1
    49    34    35    1
    50    37    35   ar
    51    37    39   ar
    52    80    82   am
    53    80    79    1
    54    26    28   ar
    55    75    74    1
    56    75    78    1
    57    29    28   ar
    58    35    36   ar
    59    39    40   ar
    60    36    38   ar
    61    79    78    1
    62    40    38   ar
    63    40    41    1
    64   110   108   ar
    65   110   112   ar
    66   105   104    2
    67   108   107   ar
    68   113   112    1
    69   104   103    1
    70   112   111   ar
    71    68    67    2
    72    63    62    2
    73   107   106    1
    74   107   109   ar
    75   103   106    1
    76   103   102    1
    77   111   109   ar
    78    67    66    1
    79    62    61    1
    80    62    65   am
    81    61    64    1
    82    61    60    1
    83    66    65    1
    84    66    69    1
    85    94    93    2
    86    93    92    1
    87    72    71   ar
    88    69    70    2
    89    71    73   ar
    90    71    70    1
    91    92    91    1
    92    92    95    1
    93    45    44    2
    94    53    52    2
    95    95    96    1
    96    96    97    1
    97    49    47    1
    98    44    43    1
    99    44    50   am
   100    97    98    1
   101    52    51    1
   102    43    46    1
   103    43    42    1
   104    98    99    2
   105    51    50    1
   106    51    54    1
   107    47    46    1
   108    47    48    1
   109    56    58   ar
   110    56    55   ar
   111    58    59   ar
   112    99   100    1
   113    99   101    1
   114    54    55    1
   115    55    57   ar
   116    59    57   ar
