@<TRIPOS>MOLECULE
tmp/1nfpA03.pdb
 176 170 0 0 0
SMALL
GASTEIGER

@<TRIPOS>ATOM
      1  N         14.0700   35.2450   31.4580 N.3     4  TRP4       -0.1241
      2  CA        13.7740   33.8240   31.7220 C.3     4  TRP4        0.1605
      3  C         12.2150   33.7840   31.7990 C.2     4  TRP4        0.2264
      4  O         11.6160   34.7100   32.3600 O.2     4  TRP4       -0.2867
      5  CB        14.4330   33.3190   33.0150 C.3     4  TRP4        0.0550
      6  CG        15.9200   33.1840   32.8830 C.ar    4  TRP4        0.0003
      7  CD1       16.6690   33.5050   31.7790 C.ar    4  TRP4        0.0946
      8  CD2       16.8580   32.7470   33.8750 C.ar    4  TRP4        0.0152
      9  NE1       18.0250   33.2610   32.0070 N.ar    4  TRP4       -0.2442
     10  CE2       18.1490   32.7870   33.2840 C.ar    4  TRP4        0.0810
     11  CE3       16.7180   32.2730   35.1780 C.ar    4  TRP4        0.0012
     12  CZ2       19.3000   32.4180   33.9690 C.ar    4  TRP4        0.0191
     13  CZ3       17.8710   31.8890   35.8710 C.ar    4  TRP4        0.0001
     14  CH2       19.1240   31.9490   35.2500 C.ar    4  TRP4        0.0015
     15  N          8.6410   31.5240   32.6140 N.3     6  TYR6       -0.1241
     16  CA         8.0900   30.5740   33.6020 C.3     6  TYR6        0.1605
     17  C          6.7280   30.0970   33.1180 C.2     6  TYR6        0.2264
     18  O          6.0030   30.6610   32.2760 O.2     6  TYR6       -0.2867
     19  CB         7.9750   31.3450   34.9490 C.3     6  TYR6        0.0534
     20  CG         9.3220   31.9090   35.3760 C.ar    6  TYR6       -0.0201
     21  CD1       10.2330   31.0820   36.0430 C.ar    6  TYR6       -0.0009
     22  CD2        9.6610   33.2400   35.0960 C.ar    6  TYR6       -0.0009
     23  CE1       11.5090   31.5800   36.4240 C.ar    6  TYR6        0.0417
     24  CE2       10.9180   33.7430   35.4890 C.ar    6  TYR6        0.0417
     25  CZ        11.8200   32.8860   36.1450 C.ar    6  TYR6        0.1957
     26  OH        13.0490   33.3600   36.5170 O.3     6  TYR6       -0.2866
     27  N          3.1080   33.2020   34.7310 N.3    42  TYR42      -0.1241
     28  CA         2.9680   31.7900   34.3650 C.3    42  TYR42       0.1605
     29  C          2.3070   31.7570   32.9950 C.2    42  TYR42       0.2264
     30  O          1.0880   31.8150   32.9180 O.2    42  TYR42      -0.2867
     31  CB         2.3080   30.9970   35.4970 C.3    42  TYR42       0.0534
     32  CG         2.9700   31.3050   36.8290 C.ar   42  TYR42      -0.0201
     33  CD1        4.1950   30.7120   37.1650 C.ar   42  TYR42      -0.0009
     34  CD2        2.3750   32.1880   37.7330 C.ar   42  TYR42      -0.0009
     35  CE1        4.8150   31.0030   38.3860 C.ar   42  TYR42       0.0417
     36  CE2        2.9920   32.4750   38.9670 C.ar   42  TYR42       0.0417
     37  CZ         4.2290   31.8850   39.2750 C.ar   42  TYR42       0.1957
     38  OH         4.8420   32.1670   40.4640 O.3    42  TYR42      -0.2866
     39  N          8.4390   21.9100   42.5290 N.3   132  VAL132     -0.1245
     40  CA         8.7900   22.9310   43.5030 C.3   132  VAL132      0.1561
     41  C          7.9200   22.7400   44.7780 C.2   132  VAL132      0.2260
     42  O          6.6850   22.7390   44.6640 O.2   132  VAL132     -0.2867
     43  CB         8.6030   24.3650   42.9800 C.3   132  VAL132      0.0252
     44  CG1        8.8340   25.4480   44.0300 C.3   132  VAL132      0.0019
     45  CG2        9.4650   24.6200   41.7530 C.3   132  VAL132      0.0019
     46  N          8.0590   24.6300   48.4200 N.3   134  VAL134     -0.1245
     47  CA         8.6460   25.6210   49.3230 C.3   134  VAL134      0.1561
     48  C          7.9570   25.5580   50.7050 C.2   134  VAL134      0.2260
     49  O          6.7120   25.6830   50.8060 O.2   134  VAL134     -0.2867
     50  CB         8.5650   27.0540   48.7770 C.3   134  VAL134      0.0252
     51  CG1        9.0290   28.1190   49.7860 C.3   134  VAL134      0.0019
     52  CG2        9.3420   27.1510   47.4720 C.3   134  VAL134      0.0019
     53  N         13.2970   21.0420   43.3470 N.3   170  ALA170     -0.1245
     54  CA        13.4550   22.1340   44.3210 C.3   170  ALA170      0.1562
     55  C         12.5200   21.9710   45.5050 C.2   170  ALA170      0.2260
     56  O         11.3330   22.2360   45.3770 O.2   170  ALA170     -0.2867
     57  CB        13.2930   23.4550   43.6050 C.3   170  ALA170      0.0290
     58  N         12.2540   29.1730   50.6340 N.3   174  PHE174     -0.1241
     59  CA        12.2390   30.0400   49.4460 C.3   174  PHE174      0.1605
     60  C         13.6330   30.3970   48.9480 C.2   174  PHE174      0.2264
     61  O         13.9670   30.1210   47.7800 O.2   174  PHE174     -0.2867
     62  CB        11.3860   31.2750   49.6470 C.3   174  PHE174      0.0534
     63  CG        11.2490   32.1490   48.4430 C.ar  174  PHE174     -0.0203
     64  CD1       10.3580   31.7860   47.4290 C.ar  174  PHE174     -0.0042
     65  CD2       12.0050   33.2910   48.2940 C.ar  174  PHE174     -0.0042
     66  CE1       10.1940   32.5760   46.3030 C.ar  174  PHE174     -0.0003
     67  CE2       11.8600   34.1030   47.1490 C.ar  174  PHE174     -0.0003
     68  CZ        10.9350   33.7330   46.1520 C.ar  174  PHE174     -0.0000
     69  N         15.6070   27.4380   47.4210 N.3   177  CYS177     -0.1221
     70  CA        15.0400   27.0480   46.1290 C.3   177  CYS177      0.1808
     71  C         15.4530   28.0290   45.0290 C.2   177  CYS177      0.2601
     72  O         15.8030   27.5250   43.9480 O.2   177  CYS177     -0.2717
     73  CB        13.5190   26.8770   46.1820 C.3   177  CYS177      0.0970
     74  SG        12.9560   25.4590   47.1470 S.3   177  CYS177     -0.0800
     75  N         15.4240   29.3240   45.2710 N.am  178  LEU178     -0.1979
     76  CA        15.7800   30.3800   44.3430 C.3   178  LEU178      0.1596
     77  C         17.1940   30.1200   43.7970 C.2   178  LEU178      0.2287
     78  O         17.4370   30.0030   42.6150 O.2   178  LEU178     -0.2864
     79  CB        15.6800   31.7250   45.0410 C.3   178  LEU178      0.0297
     80  CG        14.4750   32.6170   44.7790 C.3   178  LEU178      0.0022
     81  CD1       14.7240   33.9470   45.5180 C.3   178  LEU178      0.0001
     82  CD2       14.3380   32.9210   43.3000 C.3   178  LEU178      0.0001
     83  N         17.7130   26.5570   42.0930 N.3   181  VAL181     -0.1231
     84  CA        17.2190   26.5850   40.7070 C.3   181  VAL181      0.1692
     85  C         18.1830   27.3740   39.8230 C.2   181  VAL181      0.2591
     86  O         18.4830   26.8850   38.7150 O.2   181  VAL181     -0.2718
     87  CB        15.7210   26.9470   40.6310 C.3   181  VAL181      0.0266
     88  CG1       15.2270   27.0280   39.1940 C.3   181  VAL181      0.0020
     89  CG2       14.9210   25.8700   41.3550 C.3   181  VAL181      0.0020
     90  N         18.6680   28.5220   40.2550 N.am  182  ALA182     -0.1980
     91  CA        19.6280   29.3300   39.4930 C.3   182  ALA182      0.1597
     92  C         20.8870   28.5020   39.1940 C.2   182  ALA182      0.2287
     93  O         21.4470   28.5300   38.0680 O.2   182  ALA182     -0.2864
     94  CB        19.9410   30.6180   40.2140 C.3   182  ALA182      0.0319
     95  N         11.4670   27.7160   32.3260 N.3   194  PHE194     -0.1241
     96  CA        10.9850   26.6720   33.2380 C.3   194  PHE194      0.1605
     97  C          9.4680   26.3650   33.1940 C.2   194  PHE194      0.2264
     98  O          8.6970   27.2150   32.7980 O.2   194  PHE194     -0.2867
     99  CB        11.2170   27.2630   34.6890 C.3   194  PHE194      0.0534
    100  CG        12.6750   27.6410   34.9060 C.ar  194  PHE194     -0.0203
    101  CD1       13.5480   26.6650   35.3930 C.ar  194  PHE194     -0.0042
    102  CD2       13.0780   28.9280   34.5940 C.ar  194  PHE194     -0.0042
    103  CE1       14.9150   27.0000   35.5720 C.ar  194  PHE194     -0.0003
    104  CE2       14.4280   29.2820   34.7290 C.ar  194  PHE194     -0.0003
    105  CZ        15.3190   28.3090   35.2300 C.ar  194  PHE194     -0.0000
    106  N          7.0940   24.8030   36.2750 N.3   196  PHE196     -0.1241
    107  CA         7.0340   24.3140   37.6570 C.3   196  PHE196      0.1605
    108  C          5.7410   23.5390   37.9950 C.2   196  PHE196      0.2264
    109  O          4.6410   23.9540   37.5510 O.2   196  PHE196     -0.2867
    110  CB         7.0760   25.4930   38.6170 C.3   196  PHE196      0.0534
    111  CG         8.2330   26.4480   38.4930 C.ar  196  PHE196     -0.0203
    112  CD1        9.5470   25.9420   38.4390 C.ar  196  PHE196     -0.0042
    113  CD2        7.9790   27.7900   38.3740 C.ar  196  PHE196     -0.0042
    114  CE1       10.6220   26.8500   38.3560 C.ar  196  PHE196     -0.0003
    115  CE2        9.0180   28.6990   38.2790 C.ar  196  PHE196     -0.0003
    116  CZ        10.3450   28.2020   38.2770 C.ar  196  PHE196     -0.0000
    117  N          3.6900   22.6370   41.2550 N.3   198  PHE198     -0.1298
    118  CA         3.4780   22.9680   42.6760 C.3   198  PHE198      0.1290
    119  C          2.5540   21.9750   43.4130 C.3   198  PHE198      0.2013
    120  O          2.2920   22.3070   44.5940 O.3   198  PHE198     -0.2188
    121  CB         2.8290   24.3590   42.7980 C.3   198  PHE198      0.0480
    122  CG         3.6460   25.5000   42.2380 C.ar  198  PHE198     -0.0206
    123  CD1        4.7160   26.0320   42.9680 C.ar  198  PHE198     -0.0042
    124  CD2        3.3270   26.0330   40.9880 C.ar  198  PHE198     -0.0042
    125  CE1        5.4590   27.0890   42.4510 C.ar  198  PHE198     -0.0003
    126  CE2        4.0360   27.1010   40.4670 C.ar  198  PHE198     -0.0003
    127  CZ         5.1130   27.6470   41.2030 C.ar  198  PHE198     -0.0000
    128  N          3.1110   31.5880   47.7010 N.3   210  LEU210     -0.1245
    129  CA         4.3900   31.3640   46.9980 C.3   210  LEU210      0.1561
    130  C          4.3000   31.8800   45.5390 C.2   210  LEU210      0.2260
    131  O          5.1630   32.6480   45.0800 O.2   210  LEU210     -0.2867
    132  CB         4.7550   29.8870   47.0680 C.3   210  LEU210      0.0270
    133  CG         5.8850   29.5070   46.1220 C.3   210  LEU210      0.0019
    134  CD1        7.1880   30.1340   46.6510 C.3   210  LEU210      0.0001
    135  CD2        5.9920   28.0120   45.9900 C.3   210  LEU210      0.0001
    136  N          6.4930   35.0960   44.1310 N.3   214  PHE214     -0.1241
    137  CA         7.4290   34.8630   43.0230 C.3   214  PHE214      0.1605
    138  C          7.0400   35.7570   41.8280 C.2   214  PHE214      0.2264
    139  O          7.9360   36.3250   41.2020 O.2   214  PHE214     -0.2867
    140  CB         7.5510   33.3970   42.6280 C.3   214  PHE214      0.0534
    141  CG         8.6820   33.1770   41.6300 C.ar  214  PHE214     -0.0203
    142  CD1        9.9890   33.5170   41.9610 C.ar  214  PHE214     -0.0042
    143  CD2        8.3940   32.6600   40.3730 C.ar  214  PHE214     -0.0042
    144  CE1       11.0350   33.3200   41.0480 C.ar  214  PHE214     -0.0003
    145  CE2        9.4010   32.4530   39.4660 C.ar  214  PHE214     -0.0003
    146  CZ        10.7270   32.7700   39.7950 C.ar  214  PHE214     -0.0000
    147  N          8.2900   39.2950   42.4450 N.3   217  ARG217     -0.1231
    148  CA         9.7520   39.3360   42.4400 C.3   217  ARG217      0.1694
    149  C         10.2970   39.3290   41.0140 C.2   217  ARG217      0.2591
    150  O         11.2490   40.0520   40.6680 O.2   217  ARG217     -0.2718
    151  CB        10.2660   38.1110   43.2110 C.3   217  ARG217      0.0321
    152  CG        11.7760   38.1750   43.2460 C.3   217  ARG217      0.0489
    153  CD        12.3770   36.9240   43.8400 C.3   217  ARG217      0.2205
    154  NE        13.6540   37.4730   44.3610 N.pl3 217  ARG217     -0.0865
    155  CZ        13.7240   37.8190   45.6560 C.cat 217  ARG217      0.5346
    156  NH1       14.3220   38.9810   45.9420 N.pl3 217  ARG217      0.1354
    157  NH2       13.3130   37.0160   46.6240 N.pl3 217  ARG217      0.1354
    158  N          9.7120   38.4920   40.1550 N.am  218  VAL218     -0.1980
    159  CA        10.1070   38.3570   38.7370 C.3   218  VAL218      0.1595
    160  C          9.7880   39.6560   37.9900 C.2   218  VAL218      0.2287
    161  O         10.5760   40.1360   37.1580 O.2   218  VAL218     -0.2864
    162  CB         9.4490   37.1290   38.1050 C.3   218  VAL218      0.0276
    163  CG1        9.5250   37.1650   36.5660 C.3   218  VAL218      0.0022
    164  CG2       10.0170   35.8230   38.6160 C.3   218  VAL218      0.0022
    165  N         12.3930   42.1570   38.9850 N.3   221  TYR221     -0.1241
    166  CA        13.6890   41.7960   38.4090 C.3   221  TYR221      0.1605
    167  C         13.7760   42.1920   36.9400 C.2   221  TYR221      0.2264
    168  O         14.7950   42.7520   36.4920 O.2   221  TYR221     -0.2867
    169  CB        13.9690   40.3070   38.6390 C.3   221  TYR221      0.0534
    170  CG        15.3040   39.8130   38.1460 C.ar  221  TYR221     -0.0201
    171  CD1       15.5170   39.3940   36.8330 C.ar  221  TYR221     -0.0009
    172  CD2       16.3940   39.7620   39.0490 C.ar  221  TYR221     -0.0009
    173  CE1       16.7540   38.9320   36.3890 C.ar  221  TYR221      0.0417
    174  CE2       17.6350   39.2940   38.6210 C.ar  221  TYR221      0.0417
    175  CZ        17.8090   38.8950   37.2930 C.ar  221  TYR221      0.1957
    176  OH        19.0310   38.4550   36.8720 O.3   221  TYR221     -0.2866
@<TRIPOS>BOND
     1     1     2    1
     2     2     3    1
     3     2     5    1
     4     7     9   ar
     5     7     6   ar
     6     3     4    2
     7     9    10   ar
     8    18    17    2
     9    95    96    1
    10    15    16    1
    11    98    97    2
    12     6     5    1
    13     6     8   ar
    14    30    29    2
    15    29    28    1
    16    17    16    1
    17    97    96    1
    18    96    99    1
    19    10     8   ar
    20    10    12   ar
    21    16    19    1
    22     8    11   ar
    23    12    14   ar
    24    28    27    1
    25    28    31    1
    26   102   104   ar
    27   102   100   ar
    28    99   100    1
    29   104   105   ar
    30   100   101   ar
    31    19    20    1
    32    22    20   ar
    33    22    24   ar
    34    11    13   ar
    35   105   103   ar
    36    14    13   ar
    37    20    21   ar
    38   101   103   ar
    39    24    25   ar
    40    31    32    1
    41    21    23   ar
    42    25    23   ar
    43    25    26    1
    44   106   107    1
    45   173   171   ar
    46   173   175   ar
    47   168   167    2
    48   163   162    1
    49    32    33   ar
    50    32    34   ar
    51   171   170   ar
    52   176   175    1
    53   167   166    1
    54   161   160    2
    55    33    35   ar
    56   175   174   ar
    57   109   108    2
    58   107   108    1
    59   107   110    1
    60    34    36   ar
    61   160   159    1
    62    93    92    2
    63   162   164    1
    64   162   159    1
    65   170   169    1
    66   170   172   ar
    67   116   115   ar
    68   116   114   ar
    69   115   113   ar
    70   114   112   ar
    71   113   111   ar
    72    35    37   ar
    73   166   169    1
    74   166   165    1
    75   112   111   ar
    76   111   110    1
    77   174   172   ar
    78    86    85    2
    79   159   158    1
    80    36    37   ar
    81    92    91    1
    82    88    87    1
    83    37    38    1
    84   145   146   ar
    85   145   143   ar
    86    91    94    1
    87    91    90    1
    88   146   144   ar
    89    85    90   am
    90    85    84    1
    91   158   149   am
    92   143   141   ar
    93   126   124   ar
    94   126   127   ar
    95    87    84    1
    96    87    89    1
    97   150   149    2
    98    84    83    1
    99   124   122   ar
   100   149   148    1
   101   144   142   ar
   102   139   138    2
   103   127   125   ar
   104   117   118    1
   105   141   142   ar
   106   141   140    1
   107    45    43    1
   108   138   137    1
   109   122   121    1
   110   122   123   ar
   111   148   147    1
   112   148   151    1
   113   125   123   ar
   114    39    40    1
   115    78    77    2
   116   140   137    1
   117   118   121    1
   118   118   119    1
   119    43    40    1
   120    43    44    1
   121   137   136    1
   122   151   152    1
   123   152   153    1
   124    82    80    1
   125    53    54    1
   126   119   120    1
   127    40    41    1
   128    57    54    1
   129    77    76    1
   130   153   154    1
   131    72    71    2
   132    54    55    1
   133    76    79    1
   134    76    75    1
   135   154   155    2
   136    42    41    2
   137    80    79    1
   138    80    81    1
   139    71    75   am
   140    71    70    1
   141   131   130    2
   142    56    55    2
   143   130   129    1
   144   155   156    1
   145   155   157    1
   146   135   133    1
   147   133   134    1
   148   133   132    1
   149    70    73    1
   150    70    69    1
   151    68    66   ar
   152    68    67   ar
   153    73    74    1
   154    66    64   ar
   155   129   132    1
   156   129   128    1
   157    67    65   ar
   158    64    63   ar
   159    52    50    1
   160    61    60    2
   161    65    63   ar
   162    46    47    1
   163    63    62    1
   164    50    47    1
   165    50    51    1
   166    60    59    1
   167    47    48    1
   168    59    62    1
   169    59    58    1
   170    48    49    2
