@<TRIPOS>MOLECULE
tmp/1nfqA01.pdb
 142 137 0 0 0
SMALL
GASTEIGER

@<TRIPOS>ATOM
      1  N          9.9580   55.2340    6.1610 N.3    91  LEU91      -0.1245
      2  CA         9.5910   54.5160    4.9560 C.3    91  LEU91       0.1561
      3  C          8.8490   55.4200    3.9830 C.2    91  LEU91       0.2260
      4  O          7.8610   56.0570    4.3470 O.2    91  LEU91      -0.2867
      5  CB         8.6900   53.3290    5.3010 C.3    91  LEU91       0.0270
      6  CG         8.0080   52.6420    4.1130 C.3    91  LEU91       0.0019
      7  CD1        9.0480   51.9180    3.2720 C.3    91  LEU91       0.0001
      8  CD2        6.9700   51.6620    4.6150 C.3    91  LEU91       0.0001
      9  N          7.7840   55.5910   -0.4380 N.3    93  ILE93      -0.1245
     10  CA         7.7530   54.7920   -1.6510 C.3    93  ILE93       0.1561
     11  C          7.6120   55.6400   -2.9070 C.2    93  ILE93       0.2260
     12  O          7.4120   56.8520   -2.8340 O.2    93  ILE93      -0.2867
     13  CB         6.5950   53.7720   -1.6000 C.3    93  ILE93       0.0252
     14  CG1        5.2520   54.5040   -1.5710 C.3    93  ILE93       0.0019
     15  CG2        6.7240   52.9010   -0.3510 C.3    93  ILE93       0.0019
     16  CD1        4.0470   53.5730   -1.5420 C.3    93  ILE93       0.0001
     17  N         16.1940   44.9890    7.3780 N.3   139  SER139     -0.1217
     18  CA        14.9080   44.3600    7.0590 C.3   139  SER139      0.1889
     19  C         15.1420   43.3690    5.9310 C.2   139  SER139      0.2288
     20  O         16.2560   43.2980    5.4040 O.2   139  SER139     -0.2866
     21  CB        13.8670   45.4050    6.6270 C.3   139  SER139      0.2089
     22  OG        14.1880   46.0190    5.3930 O.3   139  SER139     -0.2183
     23  N         14.0820   43.7110    3.1770 N.3   141  GLU141     -0.1245
     24  CA        14.2210   44.5510    1.9840 C.3   141  GLU141      0.1567
     25  C         15.7060   44.8690    1.8110 C.2   141  GLU141      0.2260
     26  O         16.1130   45.5220    0.8480 O.2   141  GLU141     -0.2867
     27  CB        13.4380   45.8580    2.1090 C.3   141  GLU141      0.0388
     28  CG        11.9450   45.7180    1.8830 C.3   141  GLU141      0.1160
     29  CD        11.1940   45.3100    3.1330 C.2   141  GLU141      0.3649
     30  OE1        9.9820   45.0330    3.0160 O.co2 141  GLU141     -0.2457
     31  OE2       11.8090   45.2760    4.2270 O.co2 141  GLU141     -0.2457
     32  N         12.1110   45.1040   -3.9810 N.3   146  THR146     -0.1203
     33  CA        10.6750   45.3280   -4.0170 C.3   146  THR146      0.1994
     34  C         10.4250   46.4830   -4.9730 C.2   146  THR146      0.2618
     35  O         11.2030   47.4360   -5.0230 O.2   146  THR146     -0.2717
     36  CB        10.1260   45.7290   -2.6350 C.3   146  THR146      0.1784
     37  OG1       10.3730   44.6810   -1.6920 O.3   146  THR146     -0.2211
     38  CG2        8.6390   45.9890   -2.7130 C.3   146  THR146      0.0376
     39  N          9.3420   46.3950   -5.7330 N.am  147  VAL147     -0.1965
     40  CA         8.9920   47.4430   -6.6800 C.3   147  VAL147      0.1727
     41  C          8.6600   48.7460   -5.9500 C.2   147  VAL147      0.2616
     42  O          8.0770   48.7230   -4.8630 O.2   147  VAL147     -0.2715
     43  CB         7.7700   47.0210   -7.5240 C.3   147  VAL147      0.0290
     44  CG1        7.3030   48.1800   -8.3870 C.3   147  VAL147      0.0023
     45  CG2        8.1310   45.8300   -8.3960 C.3   147  VAL147      0.0023
     46  N          9.0410   49.8730   -6.5530 N.am  148  ALA148     -0.1963
     47  CA         8.7710   51.2060   -6.0000 C.3   148  ALA148      0.1728
     48  C          9.2710   51.4030   -4.5700 C.2   148  ALA148      0.2616
     49  O          8.6890   52.1720   -3.8030 O.2   148  ALA148     -0.2715
     50  CB         7.2630   51.4960   -6.0630 C.3   148  ALA148      0.0334
     51  N         10.3640   50.7310   -4.2280 N.am  149  CYS149     -0.1968
     52  CA        10.9210   50.8060   -2.8850 C.3   149  CYS149      0.1712
     53  C         12.4370   51.0130   -2.9550 C.2   149  CYS149      0.2296
     54  O         13.1980   50.4390   -2.1790 O.2   149  CYS149     -0.2864
     55  CB        10.5970   49.4980   -2.1690 C.3   149  CYS149      0.0983
     56  SG        10.2270   49.6690   -0.4430 S.3   149  CYS149     -0.0798
     57  N         14.2760   52.8750    0.2870 N.3   152  TYR152     -0.1241
     58  CA        14.2380   51.9670    1.4220 C.3   152  TYR152      0.1605
     59  C         15.1560   50.7610    1.2000 C.2   152  TYR152      0.2264
     60  O         15.9390   50.4020    2.0830 O.2   152  TYR152     -0.2867
     61  CB        12.8040   51.5010    1.6500 C.3   152  TYR152      0.0534
     62  CG        12.5790   50.8140    2.9740 C.ar  152  TYR152     -0.0201
     63  CD1       12.6280   51.5310    4.1710 C.ar  152  TYR152     -0.0009
     64  CD2       12.2780   49.4520    3.0320 C.ar  152  TYR152     -0.0009
     65  CE1       12.3730   50.9110    5.3930 C.ar  152  TYR152      0.0417
     66  CE2       12.0250   48.8230    4.2490 C.ar  152  TYR152      0.0417
     67  CZ        12.0710   49.5570    5.4250 C.ar  152  TYR152      0.1957
     68  OH        11.8010   48.9300    6.6260 O.3   152  TYR152     -0.2866
     69  N         13.8950   41.9460    9.9820 N.3   182  PRO182     -0.2102
     70  CA        12.5490   41.4020   10.1670 C.3   182  PRO182      0.1504
     71  C         11.6570   41.5040    8.9360 C.2   182  PRO182      0.2576
     72  O         11.9460   42.2570    8.0050 O.2   182  PRO182     -0.2718
     73  CB        12.0140   42.1930   11.3520 C.3   182  PRO182      0.0282
     74  CG        12.6950   43.5020   11.2280 C.3   182  PRO182      0.0208
     75  CD        14.0930   43.1690   10.7830 C.3   182  PRO182      0.0893
     76  N         10.5940   40.7040    8.9280 N.am  183  GLY183     -0.1943
     77  CA         9.6430   40.7240    7.8360 C.3   183  GLY183      0.2014
     78  C          8.5570   41.6870    8.2610 C.2   183  GLY183      0.2638
     79  O          8.8580   42.6950    8.8900 O.2   183  GLY183     -0.2714
     80  N          7.3000   41.3900    7.9530 N.am  184  LEU184     -0.1977
     81  CA         6.2280   42.2900    8.3470 C.3   184  LEU184      0.1596
     82  C          5.9400   42.2100    9.8490 C.2   184  LEU184      0.2287
     83  O          5.6610   41.1380   10.3910 O.2   184  LEU184     -0.2864
     84  CB         4.9440   41.9900    7.5640 C.3   184  LEU184      0.0297
     85  CG         3.7880   42.9660    7.8330 C.3   184  LEU184      0.0022
     86  CD1        4.1580   44.3520    7.3400 C.3   184  LEU184      0.0001
     87  CD2        2.5310   42.4870    7.1360 C.3   184  LEU184      0.0001
     88  N          4.1270   51.9510   11.3340 N.3   189  MET189     -0.1230
     89  CA         4.7800   52.1420   10.0400 C.3   189  MET189      0.1702
     90  C          4.1520   51.2780    8.9480 C.2   189  MET189      0.2593
     91  O          4.2600   51.5930    7.7660 O.2   189  MET189     -0.2718
     92  CB         6.2750   51.8110   10.1290 C.3   189  MET189      0.0401
     93  CG         7.0340   52.0610    8.8240 C.3   189  MET189      0.0596
     94  SD         8.8100   51.6760    8.8570 S.3   189  MET189     -0.1393
     95  CE         8.7990   50.1490    7.9800 C.3   189  MET189      0.0692
     96  N          3.4850   50.1980    9.3410 N.am  190  THR190     -0.1953
     97  CA         2.8790   49.2950    8.3690 C.3   190  THR190      0.1897
     98  C          1.4470   48.8520    8.6800 C.2   190  THR190      0.2313
     99  O          1.0060   47.8070    8.1970 O.2   190  THR190     -0.2863
    100  CB         3.7430   48.0230    8.2080 C.3   190  THR190      0.1794
    101  OG1        3.8790   47.3750    9.4810 O.3   190  THR190     -0.2208
    102  CG2        5.1260   48.3780    7.6770 C.3   190  THR190      0.0378
    103  N         -1.1660   50.0190    7.5520 N.3   192  TRP192     -0.1227
    104  CA        -1.9830   50.1950    6.3540 C.3   192  TRP192      0.1737
    105  C         -1.7250   49.0710    5.3510 C.2   192  TRP192      0.2595
    106  O         -2.3510   49.0090    4.2890 O.2   192  TRP192     -0.2718
    107  CB        -1.6570   51.5260    5.6840 C.3   192  TRP192      0.0564
    108  CG        -0.2070   51.6700    5.3600 C.ar  192  TRP192      0.0003
    109  CD1        0.7810   52.1010    6.1980 C.ar  192  TRP192      0.0946
    110  CD2        0.4310   51.3550    4.1160 C.ar  192  TRP192      0.0152
    111  NE1        1.9950   52.0750    5.5530 N.ar  192  TRP192     -0.2442
    112  CE2        1.8110   51.6200    4.2740 C.ar  192  TRP192      0.0810
    113  CE3       -0.0300   50.8690    2.8820 C.ar  192  TRP192      0.0012
    114  CZ2        2.7390   51.4200    3.2440 C.ar  192  TRP192      0.0191
    115  CZ3        0.8930   50.6690    1.8550 C.ar  192  TRP192      0.0001
    116  CH2        2.2650   50.9450    2.0460 C.ar  192  TRP192      0.0015
    117  N         -0.7930   48.1880    5.6940 N.am  193  VAL193     -0.1980
    118  CA        -0.4230   47.0760    4.8290 C.3   193  VAL193      0.1595
    119  C         -1.1010   45.7880    5.2690 C.2   193  VAL193      0.2287
    120  O         -1.1150   45.4560    6.4540 O.2   193  VAL193     -0.2864
    121  CB         1.1050   46.8550    4.8550 C.3   193  VAL193      0.0276
    122  CG1        1.5040   45.8030    3.8370 C.3   193  VAL193      0.0022
    123  CG2        1.8160   48.1640    4.5900 C.3   193  VAL193      0.0022
    124  N          0.7910   40.2670    3.1600 N.3   197  ILE197     -0.1231
    125  CA         1.3970   40.7600    1.9240 C.3   197  ILE197      0.1692
    126  C          2.5750   39.8780    1.4970 C.2   197  ILE197      0.2592
    127  O          2.8290   39.6980    0.3070 O.2   197  ILE197     -0.2718
    128  CB         1.8830   42.2290    2.0830 C.3   197  ILE197      0.0266
    129  CG1        2.3630   42.7780    0.7380 C.3   197  ILE197      0.0019
    130  CG2        2.9940   42.3090    3.1140 C.3   197  ILE197      0.0020
    131  CD1        1.3340   43.6190    0.0190 C.3   197  ILE197      0.0001
    132  N          3.2900   39.3310    2.4770 N.am  198  PHE198     -0.1976
    133  CA         4.4250   38.4540    2.2070 C.3   198  PHE198      0.1639
    134  C          4.0240   36.9890    2.3040 C.2   198  PHE198      0.2290
    135  O          3.1730   36.6140    3.1110 O.2   198  PHE198     -0.2864
    136  CB         5.5470   38.6840    3.2210 C.3   198  PHE198      0.0560
    137  CG         6.3060   39.9510    3.0160 C.ar  198  PHE198     -0.0200
    138  CD1        6.4910   40.8350    4.0740 C.ar  198  PHE198     -0.0042
    139  CD2        6.8600   40.2550    1.7790 C.ar  198  PHE198     -0.0042
    140  CE1        7.2210   42.0060    3.9020 C.ar  198  PHE198     -0.0003
    141  CE2        7.5880   41.4190    1.5990 C.ar  198  PHE198     -0.0003
    142  CZ         7.7700   42.2990    2.6630 C.ar  198  PHE198     -0.0000
@<TRIPOS>BOND
     1    45    43    1
     2    44    43    1
     3    43    40    1
     4    40    41    1
     5    40    39    1
     6    46    47    1
     7    46    41   am
     8    50    47    1
     9    47    48    1
    10    41    42    2
    11    39    34   am
    12    35    34    2
    13    34    33    1
    14    48    51   am
    15    48    49    2
    16    51    52    1
    17    33    32    1
    18    33    36    1
    19    53    52    1
    20    53    54    2
    21    11    12    2
    22    11    10    1
    23    52    55    1
    24    38    36    1
    25    36    37    1
    26    55    56    1
    27    10    13    1
    28    10     9    1
    29    13    14    1
    30    13    15    1
    31    14    16    1
    32   131   129    1
    33    57    58    1
    34   127   126    2
    35   129   128    1
    36    26    25    2
    37    59    58    1
    38    59    60    2
    39    58    61    1
    40   126   125    1
    41   126   132   am
    42   141   139   ar
    43   141   142   ar
    44    61    62    1
    45   139   137   ar
    46    25    24    1
    47   115   116   ar
    48   115   113   ar
    49    28    27    1
    50    28    29    1
    51   125   128    1
    52   125   124    1
    53    24    27    1
    54    24    23    1
    55   116   114   ar
    56   128   130    1
    57   133   134    1
    58   133   132    1
    59   133   136    1
    60   134   135    2
    61   142   140   ar
    62   113   110   ar
    63    62    64   ar
    64    62    63   ar
    65    30    29   ar
    66   137   136    1
    67   137   138   ar
    68    64    66   ar
    69    29    31   ar
    70   114   112   ar
    71     7     6    1
    72   122   121    1
    73   140   138   ar
    74     3     4    2
    75     3     2    1
    76     6     8    1
    77     6     5    1
    78   110   112   ar
    79   110   108   ar
    80    63    65   ar
    81    66    67   ar
    82   112   111   ar
    83   106   105    2
    84   123   121    1
    85   118   121    1
    86   118   119    1
    87   118   117    1
    88     2     5    1
    89     2     1    1
    90   119   120    2
    91   105   117   am
    92   105   104    1
    93   108   107    1
    94   108   109   ar
    95    65    67   ar
    96    22    21    1
    97    20    19    2
    98    67    68    1
    99   111   109   ar
   100   107   104    1
   101    19    18    1
   102   104   103    1
   103    21    18    1
   104    18    17    1
   105    87    85    1
   106    86    85    1
   107    84    85    1
   108    84    81    1
   109   102   100    1
   110    91    90    2
   111    77    78    1
   112    77    76    1
   113    80    78   am
   114    80    81    1
   115    95    94    1
   116    72    71    2
   117    99    98    2
   118   100    97    1
   119   100   101    1
   120    78    79    2
   121    81    82    1
   122    97    98    1
   123    97    96    1
   124    93    94    1
   125    93    92    1
   126    76    71   am
   127    71    70    1
   128    90    96   am
   129    90    89    1
   130    82    83    2
   131    69    70    1
   132    69    75    1
   133    89    92    1
   134    89    88    1
   135    70    73    1
   136    75    74    1
   137    74    73    1
