@<TRIPOS>MOLECULE
tmp/1nfsB00.pdb
 163 156 0 0 0
SMALL
GASTEIGER

@<TRIPOS>ATOM
      1  N         46.3000   10.4260    0.2530 N.3     1  GLU1       -0.1196
      2  CA        46.7140   10.8300    1.5960 C.3     1  GLU1        0.1783
      3  C         47.2820    9.6270    2.3440 C.2     1  GLU1        0.2306
      4  O         46.8930    8.4750    2.1540 O.2     1  GLU1       -0.2863
      5  CB        45.5520   11.4540    2.3670 C.2     1  GLU1        0.0071
      6  CG        45.8050   12.8030    3.0020 C.2     1  GLU1        0.0834
      7  CD        44.6770   13.3520    3.8500 C.2     1  GLU1        0.3877
      8  OE1       43.5420   12.8320    3.8060 O.co2   1  GLU1       -0.2406
      9  OE2       44.8830   14.3370    4.6010 O.co2   1  GLU1       -0.2406
     10  N         46.1340    6.2480    3.8940 N.3    18  LYS18      -0.1245
     11  CA        45.2340    6.5590    4.9910 C.3    18  LYS18       0.1561
     12  C         44.0900    5.5690    5.1300 C.2    18  LYS18       0.2260
     13  O         43.9620    4.9230    6.1770 O.2    18  LYS18      -0.2867
     14  CB        44.6560    7.9770    4.8300 C.3    18  LYS18       0.0271
     15  CG        43.8460    8.3880    6.0600 C.3    18  LYS18       0.0035
     16  CD        43.5750    9.8830    6.0690 C.3    18  LYS18       0.0206
     17  CE        42.8290   10.3190    4.8150 C.3    18  LYS18       0.1093
     18  NZ        41.8980   11.4460    5.0810 N.3    18  LYS18      -0.1314
     19  N         48.2920   12.1540   14.4540 N.3    31  ALA31      -0.1231
     20  CA        47.0610   12.8480   14.0920 C.3    31  ALA31       0.1694
     21  C         46.9700   14.1770   14.8230 C.2    31  ALA31       0.2592
     22  O         47.8790   14.5430   15.5630 O.2    31  ALA31      -0.2718
     23  CB        45.8510   11.9910   14.3990 C.3    31  ALA31       0.0304
     24  N         45.8720   14.8900   14.5950 N.am   32  PHE32      -0.1976
     25  CA        45.5940   16.1180   15.3130 C.3    32  PHE32       0.1639
     26  C         44.0850   16.2330   15.5400 C.2    32  PHE32       0.2290
     27  O         43.2850   15.6790   14.7900 O.2    32  PHE32      -0.2864
     28  CB        46.0740   17.3910   14.5980 C.3    32  PHE32       0.0560
     29  CG        45.3670   17.6800   13.2790 C.ar   32  PHE32      -0.0200
     30  CD1       44.2490   18.4920   13.1680 C.ar   32  PHE32      -0.0042
     31  CD2       45.8660   17.0980   12.1270 C.ar   32  PHE32      -0.0042
     32  CE1       43.6330   18.7110   11.9580 C.ar   32  PHE32      -0.0003
     33  CE2       45.2600   17.3100   10.9040 C.ar   32  PHE32      -0.0003
     34  CZ        44.1470   18.1220   10.8230 C.ar   32  PHE32      -0.0000
     35  N         30.2530   14.0350   11.8610 N.3    48  ARG48      -0.1245
     36  CA        31.0030   13.3480   10.8130 C.3    48  ARG48       0.1563
     37  C         30.0510   12.8220    9.7520 C.2    48  ARG48       0.2260
     38  O         28.9790   12.3240   10.1080 O.2    48  ARG48      -0.2867
     39  CB        31.8340   12.2150   11.4310 C.3    48  ARG48       0.0307
     40  CG        32.9280   12.7190   12.3620 C.3    48  ARG48       0.0489
     41  CD        33.5880   11.5890   13.1500 C.3    48  ARG48       0.2205
     42  NE        34.2950   10.6560   12.2760 N.pl3  48  ARG48      -0.0865
     43  CZ        35.4740   10.9180   11.7200 C.cat  48  ARG48       0.5346
     44  NH1       36.1010   12.0730   11.9330 N.pl3  48  ARG48       0.1354
     45  NH2       36.0680   10.0300   10.9330 N.pl3  48  ARG48       0.1354
     46  N         32.1610    8.6540    6.3080 N.3    52  LYS52      -0.1245
     47  CA        33.4590    8.4800    6.9610 C.3    52  LYS52       0.1561
     48  C         33.6860    7.0020    7.2410 C.2    52  LYS52       0.2260
     49  O         32.7290    6.3250    7.6100 O.2    52  LYS52      -0.2867
     50  CB        33.5400    9.2630    8.2680 C.3    52  LYS52       0.0271
     51  CG        33.5280   10.7710    8.1270 C.3    52  LYS52       0.0035
     52  CD        34.6270   11.2720    7.2060 C.3    52  LYS52       0.0206
     53  CE        36.0100   11.0500    7.7990 C.3    52  LYS52       0.1093
     54  NZ        37.0630   11.6070    6.8880 N.3    52  LYS52      -0.1314
     55  N         35.4670    5.8840    9.7520 N.3    54  ALA54      -0.1231
     56  CA        35.4580    5.6830   11.2010 C.3    54  ALA54       0.1694
     57  C         34.5310    6.7130   11.8350 C.2    54  ALA54       0.2592
     58  O         34.5040    7.8740   11.4310 O.2    54  ALA54      -0.2718
     59  CB        36.8600    5.7540   11.7760 C.3    54  ALA54       0.0304
     60  N         33.7720    6.2570   12.8160 N.am   55  TRP55      -0.1976
     61  CA        32.7190    7.0200   13.4670 C.3    55  TRP55       0.1640
     62  C         31.8700    7.8350   12.5060 C.2    55  TRP55       0.2290
     63  O         31.6790    9.0340   12.7200 O.2    55  TRP55      -0.2864
     64  CB        33.3110    7.9560   14.5320 C.3    55  TRP55       0.0576
     65  CG        33.7500    7.1670   15.7290 C.ar   55  TRP55       0.0006
     66  CD1       33.0020    6.8420   16.8230 C.ar   55  TRP55       0.0946
     67  CD2       35.0500    6.6010   15.9370 C.ar   55  TRP55       0.0152
     68  NE1       33.7540    6.1080   17.7050 N.ar   55  TRP55      -0.2442
     69  CE2       35.0160    5.9480   17.1850 C.ar   55  TRP55       0.0810
     70  CE3       36.2310    6.5890   15.1890 C.ar   55  TRP55       0.0012
     71  CZ2       36.1310    5.2860   17.7000 C.ar   55  TRP55       0.0191
     72  CZ3       37.3340    5.9350   15.6950 C.ar   55  TRP55       0.0001
     73  CH2       37.2680    5.2960   16.9380 C.ar   55  TRP55       0.0015
     74  N         39.3420   17.1540   12.9360 N.3    64  CYS64      -0.1221
     75  CA        40.4390   16.2360   13.1720 C.3    64  CYS64       0.1808
     76  C         41.0410   15.7840   11.8500 C.2    64  CYS64       0.2602
     77  O         40.4470   15.8730   10.7840 O.2    64  CYS64      -0.2717
     78  CB        39.9430   15.0220   13.9720 C.3    64  CYS64       0.0970
     79  SG        39.6040   15.4740   15.7020 S.3    64  CYS64      -0.0800
     80  N         42.2710   15.2710   11.9180 N.am   65  GLY65      -0.1942
     81  CA        42.8730   14.7570   10.6980 C.3    65  GLY65       0.2014
     82  C         44.2520   14.1680   10.9270 C.2    65  GLY65       0.2638
     83  O         44.6650   13.8730   12.0530 O.2    65  GLY65      -0.2714
     84  N         44.9480   14.0090    9.8080 N.am   66  HIS66      -0.1973
     85  CA        46.2500   13.3590    9.7830 C.3    66  HIS66       0.1656
     86  C         47.2430   14.2440    9.0500 C.2    66  HIS66       0.2291
     87  O         47.0940   14.4840    7.8520 O.2    66  HIS66      -0.2864
     88  CB        46.1510   11.9860    9.1090 C.3    66  HIS66       0.0771
     89  CG        45.1890   11.0680    9.8090 C.ar   66  HIS66       0.0820
     90  ND1       43.8510   11.0170    9.4710 N.ar   66  HIS66      -0.2267
     91  CD2       45.3520   10.1920   10.8300 C.ar   66  HIS66       0.1154
     92  CE1       43.2410   10.1420   10.2430 C.ar   66  HIS66       0.1986
     93  NE2       44.1300    9.6210   11.0800 N.ar   66  HIS66      -0.2212
     94  N         43.0310   21.0500    6.9550 N.3    80  ARG80      -0.1245
     95  CA        41.7870   20.3020    7.1530 C.3    80  ARG80       0.1563
     96  C         40.6090   21.2340    7.4130 C.2    80  ARG80       0.2260
     97  O         39.5020   20.9930    6.9210 O.2    80  ARG80      -0.2867
     98  CB        41.9360   19.3030    8.3010 C.3    80  ARG80       0.0307
     99  CG        42.7140   18.0690    7.8570 C.3    80  ARG80       0.0489
    100  CD        42.0610   17.5370    6.5870 C.3    80  ARG80       0.2205
    101  NE        41.1120   16.4660    6.9180 N.pl3  80  ARG80      -0.0865
    102  CZ        40.7010   15.6440    5.9500 C.cat  80  ARG80       0.5346
    103  NH1       41.1700   15.8310    4.7220 N.pl3  80  ARG80       0.1354
    104  NH2       39.8490   14.6700    6.2150 N.pl3  80  ARG80       0.1354
    105  N         37.5740   20.5520    5.1890 N.3    84  GLU84      -0.1245
    106  CA        36.3400   19.9860    5.7260 C.3    84  GLU84       0.1567
    107  C         35.2620   21.0420    5.9050 C.2    84  GLU84       0.2260
    108  O         34.0850   20.7230    5.7830 O.2    84  GLU84      -0.2867
    109  CB        36.6000   19.2970    7.0750 C.3    84  GLU84       0.0388
    110  CG        37.5400   18.1040    6.9660 C.3    84  GLU84       0.1160
    111  CD        37.6740   17.3310    8.2620 C.2    84  GLU84       0.3649
    112  OE1       37.0520   17.7110    9.2780 O.co2  84  GLU84      -0.2457
    113  OE2       38.2400   16.2140    8.2400 O.co2  84  GLU84      -0.2457
    114  N         45.4980    8.2780   22.1330 N.3   101  TYR101     -0.1241
    115  CA        44.3530    7.4370   22.4870 C.3   101  TYR101      0.1605
    116  C         44.2050    6.2960   21.4910 C.2   101  TYR101      0.2264
    117  O         44.6300    6.4020   20.3360 O.2   101  TYR101     -0.2867
    118  CB        43.0650    8.2870   22.5530 C.3   101  TYR101      0.0534
    119  CG        42.4990    8.5160   21.1630 C.ar  101  TYR101     -0.0201
    120  CD1       41.4090    7.8100   20.6620 C.ar  101  TYR101     -0.0009
    121  CD2       43.0950    9.4640   20.3390 C.ar  101  TYR101     -0.0009
    122  CE1       40.9230    8.0410   19.3870 C.ar  101  TYR101      0.0417
    123  CE2       42.6130    9.7000   19.0640 C.ar  101  TYR101      0.0417
    124  CZ        41.5280    8.9880   18.5940 C.ar  101  TYR101      0.1957
    125  OH        41.0610    9.2310   17.3250 O.3   101  TYR101     -0.2866
    126  N         41.1120    3.4910   15.6810 N.3   111  GLU111     -0.1245
    127  CA        42.0000    4.6380   15.6780 C.3   111  GLU111      0.1567
    128  C         43.0310    4.3860   16.7930 C.2   111  GLU111      0.2260
    129  O         42.6820    4.0030   17.9100 O.2   111  GLU111     -0.2867
    130  CB        41.3170    5.9790   15.8920 C.3   111  GLU111      0.0388
    131  CG        40.8310    6.6890   14.6440 C.3   111  GLU111      0.1160
    132  CD        41.9070    7.2100   13.7240 C.2   111  GLU111      0.3649
    133  OE1       41.6070    8.0870   12.8890 O.co2 111  GLU111     -0.2457
    134  OE2       43.0800    6.7790   13.7830 O.co2 111  GLU111     -0.2457
    135  N         46.2840    6.6960   17.7950 N.3   113  GLU113     -0.1245
    136  CA        46.9330    7.9320   17.4070 C.3   113  GLU113      0.1567
    137  C         47.6710    8.6320   18.5380 C.2   113  GLU113      0.2260
    138  O         47.2600    8.6550   19.6940 O.2   113  GLU113     -0.2867
    139  CB        45.8730    8.9000   16.8380 C.3   113  GLU113      0.0388
    140  CG        45.0840    8.3470   15.6710 C.3   113  GLU113      0.1160
    141  CD        44.0940    9.2850   15.0400 C.2   113  GLU113      0.3649
    142  OE1       43.4190   10.0410   15.7620 O.co2 113  GLU113     -0.2457
    143  OE2       43.9830    9.2790   13.7910 O.co2 113  GLU113     -0.2457
    144  N         47.8670   12.2660   19.2100 N.3   115  CYS115     -0.1235
    145  CA        46.9530   13.2650   18.6480 C.3   115  CYS115      0.1677
    146  C         46.9680   14.5740   19.4140 C.2   115  CYS115      0.2270
    147  O         46.0960   14.8370   20.2420 O.2   115  CYS115     -0.2867
    148  CB        45.5430   12.6700   18.6440 C.3   115  CYS115      0.0956
    149  SG        44.2310   13.7010   17.9570 S.3   115  CYS115     -0.0801
    150  N         37.1020   10.5620   21.4180 N.3   158  TRP158     -0.1241
    151  CA        38.2160   11.4970   21.6190 C.3   158  TRP158      0.1605
    152  C         37.7130   12.8800   22.0300 C.2   158  TRP158      0.2264
    153  O         38.3990   13.5580   22.8020 O.2   158  TRP158     -0.2867
    154  CB        39.1310   11.5960   20.3950 C.3   158  TRP158      0.0550
    155  CG        38.4680   12.0960   19.1550 C.ar  158  TRP158      0.0003
    156  CD1       38.2890   13.3860   18.7470 C.ar  158  TRP158      0.0946
    157  CD2       37.8860   11.2610   18.1440 C.ar  158  TRP158      0.0152
    158  NE1       37.6290   13.4120   17.5400 N.ar  158  TRP158     -0.2442
    159  CE2       37.3700   12.1200   17.1530 C.ar  158  TRP158      0.0810
    160  CE3       37.7580    9.8770   18.0020 C.ar  158  TRP158      0.0012
    161  CZ2       36.7300   11.6240   16.0200 C.ar  158  TRP158      0.0191
    162  CZ3       37.1240    9.3830   16.8790 C.ar  158  TRP158      0.0001
    163  CH2       36.6220   10.2620   15.9100 C.ar  158  TRP158      0.0015
@<TRIPOS>BOND
     1     1     2    1
     2     2     3    1
     3     2     5    1
     4     4     3    2
     5     5     6    2
     6     6     7    1
     7     8     7   ar
     8     7     9   ar
     9    10    11    1
    10   103   102    1
    11    17    18    1
    12    17    16    1
    13    14    11    1
    14    14    15    1
    15    11    12    1
    16    12    13    2
    17   105   106    1
    18   106   107    1
    19   106   109    1
    20   108   107    2
    21   102   104    1
    22   102   101    2
    23    15    16    1
    24    46    47    1
    25   100   101    1
    26   100    99    1
    27    54    53    1
    28    97    96    2
    29    94    95    1
    30    47    48    1
    31    47    50    1
    32   110   109    1
    33   110   111    1
    34    95    96    1
    35    95    98    1
    36    52    53    1
    37    52    51    1
    38    48    49    2
    39    87    86    2
    40    99    98    1
    41    51    50    1
    42   113   111   ar
    43   111   112   ar
    44    86    85    1
    45    88    85    1
    46    88    89    1
    47    90    89   ar
    48    90    92   ar
    49    37    38    2
    50    37    36    1
    51    55    56    1
    52    85    84    1
    53    84    82   am
    54    89    91   ar
    55    92    93   ar
    56    81    82    1
    57    81    80    1
    58    77    76    2
    59    36    39    1
    60    36    35    1
    61    34    33   ar
    62    34    32   ar
    63    91    93   ar
    64    33    31   ar
    65    82    83    2
    66    45    43    1
    67    56    59    1
    68    56    57    1
    69    39    40    1
    70    58    57    2
    71    43    44    1
    72    43    42    2
    73    57    60   am
    74    76    80   am
    75    76    75    1
    76    32    30   ar
    77    31    29   ar
    78    42    41    1
    79    40    41    1
    80    62    63    2
    81    62    61    1
    82    60    61    1
    83   133   132   ar
    84    74    75    1
    85    30    29   ar
    86    75    78    1
    87    29    28    1
    88    61    64    1
    89   132   134   ar
    90   132   131    1
    91   143   141   ar
    92    78    79    1
    93    20    23    1
    94    20    19    1
    95    20    21    1
    96    64    65    1
    97    24    21   am
    98    24    25    1
    99    28    25    1
   100   131   130    1
   101    27    26    2
   102    21    22    2
   103   141   140    1
   104   141   142   ar
   105    70    72   ar
   106    70    67   ar
   107    25    26    1
   108   140   139    1
   109   127   126    1
   110   127   130    1
   111   127   128    1
   112    72    73   ar
   113    65    67   ar
   114    65    66   ar
   115   163   161   ar
   116   163   162   ar
   117    67    69   ar
   118   161   159   ar
   119   128   129    2
   120    66    68   ar
   121   139   136    1
   122   162   160   ar
   123    73    71   ar
   124   159   158   ar
   125   159   157   ar
   126    69    71   ar
   127    69    68   ar
   128   125   124    1
   129   136   135    1
   130   136   137    1
   131   158   156   ar
   132   149   148    1
   133   160   157   ar
   134   157   155   ar
   135   137   138    2
   136   124   123   ar
   137   124   122   ar
   138   148   145    1
   139   145   144    1
   140   145   146    1
   141   156   155   ar
   142   123   121   ar
   143   155   154    1
   144   122   120   ar
   145   146   147    2
   146   117   116    2
   147   121   119   ar
   148   154   151    1
   149   120   119   ar
   150   119   118    1
   151   150   151    1
   152   116   115    1
   153   151   152    1
   154   152   153    2
   155   114   115    1
   156   115   118    1
