@<TRIPOS>MOLECULE
tmp/1nfuA00.pdb
 188 186 0 0 0
SMALL
GASTEIGER

@<TRIPOS>ATOM
      1  N         14.0570   10.6640   13.8640 N.3    42  HIS42      -0.1241
      2  CA        12.6060   10.5930   13.7920 C.3    42  HIS42       0.1621
      3  C         11.9680   11.9360   14.1080 C.2    42  HIS42       0.2264
      4  O         10.7870   12.1520   13.8350 O.2    42  HIS42      -0.2867
      5  CB        12.0650    9.4640   14.7040 C.3    42  HIS42       0.0745
      6  CG        11.7640    9.8770   16.1160 C.ar   42  HIS42       0.0817
      7  ND1       12.6240    9.6210   17.1660 N.ar   42  HIS42      -0.2268
      8  CD2       10.6720   10.4630   16.6630 C.ar   42  HIS42       0.1154
      9  CE1       12.0740   10.0310   18.2950 C.ar   42  HIS42       0.1986
     10  NE2       10.8890   10.5460   18.0190 N.ar   42  HIS42      -0.2212
     11  N         11.9320    4.1860    9.9340 N.3    82  LYS82      -0.1231
     12  CA        10.7760    4.6090   10.7120 C.3    82  LYS82       0.1693
     13  C         10.0420    3.4310   11.3380 C.2    82  LYS82       0.2592
     14  O          9.4320    3.5620   12.3960 O.2    82  LYS82      -0.2718
     15  CB         9.8060    5.4100    9.8320 C.3    82  LYS82       0.0285
     16  CG        10.0150    5.2390    8.3330 C.3    82  LYS82       0.0035
     17  CD         8.7930    5.6910    7.5500 C.3    82  LYS82       0.0206
     18  CE         8.7780    7.2010    7.3710 C.3    82  LYS82       0.1093
     19  NZ         7.4910    7.6800    6.7950 N.3    82  LYS82      -0.1314
     20  N         10.1060    2.2780   10.6830 N.am   83  GLU83      -0.1966
     21  CA         9.4210    1.0840   11.1710 C.3    83  GLU83       0.1733
     22  C          9.9430    0.5470   12.5040 C.2    83  GLU83       0.2617
     23  O          9.1610    0.1420   13.3580 O.2    83  GLU83      -0.2715
     24  CB         9.4950   -0.0240   10.1160 C.3    83  GLU83       0.0429
     25  CG         8.2570   -0.9060   10.0550 C.3    83  GLU83       0.1163
     26  CD         7.0030   -0.1280    9.7070 C.2    83  GLU83       0.3649
     27  OE1        6.1000   -0.0380   10.5650 O.co2  83  GLU83      -0.2457
     28  OE2        6.9190    0.3920    8.5740 O.co2  83  GLU83      -0.2457
     29  N         11.2590    0.5470   12.6840 N.am   84  THR84      -0.1937
     30  CA        11.8480    0.0210   13.9100 C.3    84  THR84       0.2028
     31  C         12.5770    1.0550   14.7710 C.2    84  THR84       0.2642
     32  O         13.0200    0.7420   15.8810 O.2    84  THR84      -0.2714
     33  CB        12.8330   -1.1160   13.5830 C.3    84  THR84       0.1808
     34  OG1       13.8230   -0.6390   12.6630 O.3    84  THR84      -0.2208
     35  CG2       12.0970   -2.2960   12.9530 C.3    84  THR84       0.0379
     36  N         12.7010    2.2790   14.2600 N.am   85  TYR85      -0.1973
     37  CA        13.3950    3.3490   14.9720 C.3    85  TYR85       0.1639
     38  C         14.8710    2.9940   15.0900 C.2    85  TYR85       0.2290
     39  O         15.5490    3.4410   16.0100 O.2    85  TYR85      -0.2864
     40  CB        12.8120    3.5330   16.3740 C.3    85  TYR85       0.0560
     41  CG        11.7250    4.5840   16.5020 C.ar   85  TYR85      -0.0198
     42  CD1       11.4950    5.5280   15.5000 C.ar   85  TYR85      -0.0009
     43  CD2       10.9370    4.6450   17.6500 C.ar   85  TYR85      -0.0009
     44  CE1       10.5020    6.5090   15.6500 C.ar   85  TYR85       0.0417
     45  CE2        9.9510    5.6140   17.8100 C.ar   85  TYR85       0.0417
     46  CZ         9.7360    6.5410   16.8140 C.ar   85  TYR85       0.1957
     47  OH         8.7530    7.4910   16.9960 O.3    85  TYR85      -0.2866
     48  N          6.7640   15.8820   27.8870 N.3   132  ARG132     -0.1245
     49  CA         5.6260   15.6570   28.7690 C.3   132  ARG132      0.1563
     50  C          6.0210   15.2270   30.1730 C.2   132  ARG132      0.2260
     51  O          7.0580   14.5970   30.3790 O.2   132  ARG132     -0.2867
     52  CB         4.7040   14.5950   28.1800 C.3   132  ARG132      0.0307
     53  CG         4.0970   14.9470   26.8470 C.3   132  ARG132      0.0489
     54  CD         3.1550   13.8470   26.4130 C.3   132  ARG132      0.2205
     55  NE         2.5430   14.1190   25.1190 N.pl3 132  ARG132     -0.0865
     56  CZ         1.2640   13.8900   24.8450 C.cat 132  ARG132      0.5346
     57  NH1        0.4640   13.3860   25.7770 N.pl3 132  ARG132      0.1354
     58  NH2        0.7870   14.1510   23.6360 N.pl3 132  ARG132      0.1354
     59  N          8.8890   -4.8510   21.2730 N.3   162  PHE162     -0.1241
     60  CA         9.4730   -4.4840   19.9880 C.3   162  PHE162      0.1605
     61  C         10.9790   -4.7380   20.0110 C.2   162  PHE162      0.2264
     62  O         11.6130   -4.6750   21.0640 O.2   162  PHE162     -0.2867
     63  CB         9.1840   -3.0060   19.6850 C.3   162  PHE162      0.0534
     64  CG         7.7220   -2.6520   19.7410 C.ar  162  PHE162     -0.0203
     65  CD1        6.9400   -2.6910   18.5910 C.ar  162  PHE162     -0.0042
     66  CD2        7.1190   -2.3120   20.9520 C.ar  162  PHE162     -0.0042
     67  CE1        5.5680   -2.3970   18.6470 C.ar  162  PHE162     -0.0003
     68  CE2        5.7520   -2.0170   21.0230 C.ar  162  PHE162     -0.0003
     69  CZ         4.9750   -2.0610   19.8700 C.ar  162  PHE162     -0.0000
     70  N         10.7870    8.4940   33.9190 N.3   179  ASP179     -0.1225
     71  CA        11.1830    8.1180   32.5720 C.3   179  ASP179      0.1805
     72  C         11.0520    9.3170   31.6440 C.2   179  ASP179      0.2598
     73  O         10.3600   10.2850   31.9550 O.2   179  ASP179     -0.2718
     74  CB        10.2740    6.9840   32.0850 C.3   179  ASP179      0.1424
     75  CG        10.6970    6.4170   30.7480 C.2   179  ASP179      0.3668
     76  OD1       11.8570    6.6300   30.3380 O.co2 179  ASP179     -0.2456
     77  OD2        9.8600    5.7490   30.1050 O.co2 179  ASP179     -0.2456
     78  N         11.7400    9.2630   30.5130 N.am  180  ALA180     -0.1966
     79  CA        11.6390   10.3320   29.5480 C.3   180  ALA180      0.1728
     80  C         10.2280   10.1500   29.0260 C.2   180  ALA180      0.2616
     81  O          9.5180    9.2500   29.4690 O.2   180  ALA180     -0.2715
     82  CB        12.6520   10.1360   28.4320 C.3   180  ALA180      0.0334
     83  N          9.8090   10.9970   28.0990 N.am  181  CYS181     -0.1954
     84  CA         8.4740   10.8840   27.5370 C.3   181  CYS181      0.1843
     85  C          8.4160   11.6490   26.2240 C.2   181  CYS181      0.2625
     86  O          9.4520   12.0280   25.6770 O.2   181  CYS181     -0.2714
     87  CB         7.4340   11.4200   28.5280 C.3   181  CYS181      0.0997
     88  SG         5.7200   10.8510   28.2460 S.3   181  CYS181     -0.0797
     89  N          7.2110   11.8680   25.7090 N.am  182  GLN182     -0.1977
     90  CA         7.0650   12.5920   24.4520 C.3   182  GLN182      0.1601
     91  C          7.5410   14.0380   24.5740 C.2   182  GLN182      0.2287
     92  O          7.2240   14.7300   25.5450 O.2   182  GLN182     -0.2864
     93  CB         5.6120   12.5730   23.9890 C.3   182  GLN182      0.0394
     94  CG         5.4570   12.9050   22.5210 C.3   182  GLN182      0.0908
     95  CD         4.0880   12.5600   21.9910 C.2   182  GLN182      0.2608
     96  OE1        3.0810   13.1310   22.4200 O.2   182  GLN182     -0.2717
     97  NE2        4.0370   11.6180   21.0510 N.am  182  GLN182     -0.0878
     98  N         12.2490   13.3610   23.1070 N.3   185  SER185     -0.1217
     99  CA        12.9400   12.6620   22.0300 C.3   185  SER185      0.1889
    100  C         13.9700   13.5270   21.3110 C.2   185  SER185      0.2288
    101  O         13.7030   14.6760   20.9870 O.2   185  SER185     -0.2866
    102  CB        11.9190   12.1220   21.0240 C.3   185  SER185      0.2089
    103  OG        10.6830   11.8300   21.6570 O.3   185  SER185     -0.2183
    104  N         17.5490   10.3300   23.4070 N.3   203  VAL203     -0.1231
    105  CA        16.2120    9.8750   23.7760 C.3   203  VAL203      0.1692
    106  C         15.5500    9.4210   22.4640 C.2   203  VAL203      0.2593
    107  O         15.4190   10.2050   21.5130 O.2   203  VAL203     -0.2718
    108  CB        15.3980   11.0180   24.4540 C.3   203  VAL203      0.0266
    109  CG1       13.9720   10.5620   24.7590 C.3   203  VAL203      0.0020
    110  CG2       16.0810   11.4440   25.7340 C.3   203  VAL203      0.0020
    111  N         15.1540    8.1480   22.4040 N.am  204  SER204     -0.1938
    112  CA        14.5510    7.5990   21.1850 C.3   204  SER204      0.2055
    113  C         13.0580    7.2490   21.2410 C.2   204  SER204      0.2643
    114  O         12.2460    7.8350   20.5240 O.2   204  SER204     -0.2714
    115  CB        15.3500    6.3700   20.7350 C.3   204  SER204      0.2130
    116  OG        15.2210    6.1560   19.3410 O.3   204  SER204     -0.2179
    117  N         12.6960    6.2800   22.0720 N.am  205  TRP205     -0.1959
    118  CA        11.3050    5.8690   22.1770 C.3   205  TRP205      0.1771
    119  C         11.0950    5.0110   23.3910 C.2   205  TRP205      0.2620
    120  O         12.0180    4.7290   24.1530 O.2   205  TRP205     -0.2715
    121  CB        10.8680    5.0700   20.9460 C.3   205  TRP205      0.0590
    122  CG        11.6580    3.7940   20.7130 C.ar  205  TRP205      0.0006
    123  CD1       12.8460    3.6810   20.0480 C.ar  205  TRP205      0.0946
    124  CD2       11.2960    2.4600   21.1080 C.ar  205  TRP205      0.0152
    125  NE1       13.2440    2.3670   20.0000 N.ar  205  TRP205     -0.2442
    126  CE2       12.3120    1.5950   20.6420 C.ar  205  TRP205      0.0810
    127  CE3       10.2120    1.9110   21.8080 C.ar  205  TRP205      0.0012
    128  CZ2       12.2760    0.2060   20.8540 C.ar  205  TRP205      0.0191
    129  CZ3       10.1770    0.5250   22.0200 C.ar  205  TRP205      0.0001
    130  CH2       11.2040   -0.3070   21.5410 C.ar  205  TRP205      0.0015
    131  N          9.8550    4.5930   23.5540 N.am  206  GLY206     -0.1940
    132  CA         9.4930    3.7510   24.6670 C.3   206  GLY206      0.2014
    133  C          8.0410    3.4290   24.4390 C.2   206  GLY206      0.2639
    134  O          7.3940    4.0670   23.6180 O.2   206  GLY206     -0.2714
    135  N          7.5300    2.4270   25.1320 N.am  207  GLU207     -0.1963
    136  CA         6.1310    2.0830   24.9850 C.3   207  GLU207      0.1733
    137  C          5.4290    2.8490   26.0940 C.2   207  GLU207      0.2617
    138  O          5.4140    2.4270   27.2540 O.2   207  GLU207     -0.2715
    139  CB         5.9550    0.5740   25.1270 C.3   207  GLU207      0.0429
    140  CG         6.5730   -0.1850   23.9650 C.3   207  GLU207      0.1163
    141  CD         6.5550   -1.6850   24.1680 C.2   207  GLU207      0.3649
    142  OE1        5.4590   -2.2800   24.0850 O.co2 207  GLU207     -0.2457
    143  OE2        7.6360   -2.2650   24.4070 O.co2 207  GLU207     -0.2457
    144  N          4.8730    4.0020   25.7220 N.am  208  GLY208     -0.1940
    145  CA         4.2130    4.8550   26.6890 C.3   208  GLY208      0.2014
    146  C          5.3070    5.5890   27.4410 C.2   208  GLY208      0.2639
    147  O          6.3650    5.8770   26.8770 O.2   208  GLY208     -0.2714
    148  N          5.0690    5.8860   28.7120 N.am  209  CYS209     -0.1967
    149  CA         6.0610    6.5760   29.5170 C.3   209  CYS209      0.1712
    150  C          5.9850    6.0960   30.9580 C.2   209  CYS209      0.2296
    151  O          4.9150    6.0920   31.5640 O.2   209  CYS209     -0.2864
    152  CB         5.8320    8.0920   29.4790 C.3   209  CYS209      0.0983
    153  SG         5.8940    8.8670   27.8330 S.3   209  CYS209     -0.0798
    154  N          5.8580    3.3770   32.0510 N.3   211  ARG211     -0.1245
    155  CA         4.9850    2.2190   32.1730 C.3   211  ARG211      0.1563
    156  C          5.7270    1.1080   32.9150 C.2   211  ARG211      0.2260
    157  O          6.9220    0.9050   32.6940 O.2   211  ARG211     -0.2867
    158  CB         4.5760    1.7260   30.7830 C.3   211  ARG211      0.0307
    159  CG         3.3100    2.3680   30.2320 C.3   211  ARG211      0.0489
    160  CD         2.9150    1.7550   28.8970 C.3   211  ARG211      0.2205
    161  NE         1.9040    2.5470   28.2040 N.pl3 211  ARG211     -0.0865
    162  CZ         1.4970    2.3190   26.9580 C.cat 211  ARG211      0.5346
    163  NH1        2.0140    1.3150   26.2600 N.pl3 211  ARG211      0.1354
    164  NH2        0.5830    3.1000   26.4000 N.pl3 211  ARG211      0.1354
    165  N         12.9860    3.0780   28.9780 N.3   216  GLY216     -0.1210
    166  CA        13.1440    4.0840   27.9520 C.3   216  GLY216      0.1956
    167  C         14.2080    3.5630   27.0130 C.2   216  GLY216      0.2612
    168  O         15.2210    3.0300   27.4640 O.2   216  GLY216     -0.2717
    169  N         13.9850    3.6870   25.7140 N.am  217  ILE217     -0.1965
    170  CA        14.9710    3.2160   24.7590 C.3   217  ILE217      0.1727
    171  C         15.7260    4.3990   24.1470 C.2   217  ILE217      0.2616
    172  O         15.1220    5.3690   23.6830 O.2   217  ILE217     -0.2715
    173  CB        14.3230    2.3770   23.6300 C.3   217  ILE217      0.0290
    174  CG1       13.2960    1.3910   24.2150 C.3   217  ILE217      0.0022
    175  CG2       15.4090    1.6520   22.8540 C.3   217  ILE217      0.0023
    176  CD1       13.8450    0.4400   25.2700 C.3   217  ILE217      0.0001
    177  N         17.0520    4.2930   24.1470 N.am  218  TYR218     -0.1974
    178  CA        17.9340    5.3330   23.6360 C.3   218  TYR218      0.1639
    179  C         18.8260    4.8480   22.5120 C.2   218  TYR218      0.2290
    180  O         19.1790    3.6720   22.4490 O.2   218  TYR218     -0.2864
    181  CB        18.8350    5.8430   24.7580 C.3   218  TYR218      0.0560
    182  CG        18.0820    6.3750   25.9470 C.ar  218  TYR218     -0.0198
    183  CD1       17.4620    5.5090   26.8480 C.ar  218  TYR218     -0.0009
    184  CD2       17.9660    7.7490   26.1620 C.ar  218  TYR218     -0.0009
    185  CE1       16.7410    5.9980   27.9370 C.ar  218  TYR218      0.0417
    186  CE2       17.2470    8.2450   27.2430 C.ar  218  TYR218      0.0417
    187  CZ        16.6380    7.3650   28.1230 C.ar  218  TYR218      0.1957
    188  OH        15.9110    7.8520   29.1690 O.3   218  TYR218     -0.2866
@<TRIPOS>BOND
     1    19    18    1
     2    18    17    1
     3    17    16    1
     4    16    15    1
     5    28    26   ar
     6    26    25    1
     7    26    27   ar
     8    15    12    1
     9    11    12    1
    10    25    24    1
    11    24    21    1
    12    20    21    1
    13    20    13   am
    14    12    13    1
    15    21    22    1
    16    13    14    2
    17    22    29   am
    18    22    23    2
    19    34    33    1
    20    29    30    1
    21    35    33    1
    22    33    30    1
    23     2     1    1
    24     2     3    1
    25     2     5    1
    26     4     3    2
    27    30    31    1
    28    36    31   am
    29    36    37    1
    30     5     6    1
    31    31    32    2
    32    37    38    1
    33    37    40    1
    34    38    39    2
    35    42    44   ar
    36    42    41   ar
    37    44    46   ar
    38     6     8   ar
    39     6     7   ar
    40    40    41    1
    41    41    43   ar
    42     8    10   ar
    43    46    47    1
    44    46    45   ar
    45     7     9   ar
    46    43    45   ar
    47    10     9   ar
    48    65    67   ar
    49    65    64   ar
    50    67    69   ar
    51   116   115    1
    52    63    64    1
    53    63    60    1
    54    64    66   ar
    55    69    68   ar
    56    60    61    1
    57    60    59    1
    58   125   123   ar
    59   125   126   ar
    60    61    62    2
    61   123   122   ar
    62   114   113    2
    63   126   128   ar
    64   126   124   ar
    65   122   121    1
    66   122   124   ar
    67   115   112    1
    68   128   130   ar
    69   121   118    1
    70    66    68   ar
    71   101   100    2
    72   102   103    1
    73   102    99    1
    74    97    95   am
    75   124   127   ar
    76   112   113    1
    77   112   111    1
    78   113   117   am
    79   100    99    1
    80   107   106    2
    81   130   129   ar
    82   127   129   ar
    83    95    96    2
    84    95    94    1
    85    99    98    1
    86   117   118    1
    87   118   119    1
    88   111   106   am
    89   180   179    2
    90   106   105    1
    91   179   178    1
    92    94    93    1
    93   175   173    1
    94   119   131   am
    95   119   120    2
    96   104   105    1
    97   131   132    1
    98   134   133    2
    99   173   174    1
   100   173   170    1
   101    58    56    1
   102   178   177    1
   103   178   181    1
   104   172   171    2
   105   105   108    1
   106   140   141    1
   107   140   139    1
   108    93    90    1
   109   142   141   ar
   110   177   171   am
   111   171   170    1
   112   141   143   ar
   113   174   176    1
   114   133   132    1
   115   133   135   am
   116    90    91    1
   117    90    89    1
   118   108   109    1
   119   108   110    1
   120    91    92    2
   121   181   182    1
   122   170   169    1
   123    56    55    2
   124    56    57    1
   125   136   139    1
   126   136   135    1
   127   136   137    1
   128    55    54    1
   129    86    85    2
   130    89    85   am
   131   169   167   am
   132   144   137   am
   133   144   145    1
   134   182   184   ar
   135   182   183   ar
   136   137   138    2
   137   184   186   ar
   138    85    84    1
   139   163   162    1
   140   164   162    1
   141    54    53    1
   142   145   146    1
   143    53    52    1
   144   183   185   ar
   145   147   146    2
   146   162   161    2
   147   167   168    2
   148   167   166    1
   149   186   187   ar
   150   146   148   am
   151    84    83    1
   152    84    87    1
   153   153    88    1
   154   153   152    1
   155    48    49    1
   156   185   187   ar
   157   166   165    1
   158    83    80   am
   159   187   188    1
   160    52    49    1
   161   161   160    1
   162    88    87    1
   163    82    79    1
   164   148   149    1
   165    49    50    1
   166   160   159    1
   167    80    81    2
   168    80    79    1
   169   152   149    1
   170   149   150    1
   171    79    78    1
   172    77    75   ar
   173    50    51    2
   174   159   158    1
   175    76    75   ar
   176    78    72   am
   177    75    74    1
   178   158   155    1
   179   150   151    2
   180    72    73    2
   181    72    71    1
   182   154   155    1
   183    74    71    1
   184   155   156    1
   185    71    70    1
   186   157   156    2
