@<TRIPOS>MOLECULE
tmp/1nfvP00.pdb
 161 150 0 0 0
SMALL
GASTEIGER

@<TRIPOS>ATOM
      1  N        -12.1590  140.4360  -68.7910 N.3    18  ARG18      -0.1245
      2  CA       -10.7690  140.4480  -69.2540 C.3    18  ARG18       0.1563
      3  C         -9.8200  140.4910  -68.0740 C.2    18  ARG18       0.2260
      4  O         -8.7790  139.8360  -68.0560 O.2    18  ARG18      -0.2867
      5  CB       -10.5360  141.6320  -70.1950 C.3    18  ARG18       0.0307
      6  CG        -9.1370  141.7020  -70.7700 C.3    18  ARG18       0.0489
      7  CD        -8.9860  142.8060  -71.8230 C.3    18  ARG18       0.2205
      8  NE        -7.6160  143.3180  -71.7380 N.pl3  18  ARG18      -0.0865
      9  CZ        -6.5350  142.6970  -72.1910 C.cat  18  ARG18       0.5346
     10  NH1       -6.6220  141.5160  -72.7930 N.pl3  18  ARG18       0.1354
     11  NH2       -5.3400  143.2590  -72.0500 N.pl3  18  ARG18       0.1354
     12  N         -6.8010  137.9330  -67.1660 N.3    22  LEU22      -0.1245
     13  CA        -5.4380  138.3610  -66.8900 C.3    22  LEU22       0.1561
     14  C         -4.9530  137.7960  -65.5630 C.2    22  LEU22       0.2260
     15  O         -3.7740  137.4480  -65.4520 O.2    22  LEU22      -0.2867
     16  CB        -5.3470  139.8920  -66.8940 C.3    22  LEU22       0.0270
     17  CG        -5.4780  140.5130  -68.3020 C.3    22  LEU22       0.0019
     18  CD1       -5.4010  142.0320  -68.1930 C.3    22  LEU22       0.0001
     19  CD2       -4.4260  139.9660  -69.2520 C.3    22  LEU22       0.0001
     20  N         -4.2880  133.8960  -66.0490 N.3    25  ILE25      -0.1231
     21  CA        -3.0240  133.7000  -66.7510 C.3    25  ILE25       0.1692
     22  C         -1.8580  133.7600  -65.7750 C.2    25  ILE25       0.2592
     23  O         -1.0100  132.8630  -65.7290 O.2    25  ILE25      -0.2718
     24  CB        -2.8140  134.7390  -67.8630 C.3    25  ILE25       0.0266
     25  CG1       -3.7800  134.6110  -69.0390 C.3    25  ILE25       0.0019
     26  CG2       -1.3720  134.6870  -68.3490 C.3    25  ILE25       0.0020
     27  CD1       -3.9050  135.8630  -69.8740 C.3    25  ILE25       0.0001
     28  N         -1.7810  134.8210  -64.9640 N.am   26  HIS26      -0.1976
     29  CA        -0.6460  134.8800  -64.0370 C.3    26  HIS26       0.1656
     30  C         -0.7470  133.8200  -62.9500 C.2    26  HIS26       0.2291
     31  O          0.2910  133.3110  -62.5330 O.2    26  HIS26      -0.2864
     32  CB        -0.5220  136.2540  -63.3730 C.3    26  HIS26       0.0771
     33  CG        -0.2130  137.3520  -64.3450 C.ar   26  HIS26       0.0820
     34  ND1       -1.1630  137.8890  -65.1780 N.ar   26  HIS26      -0.2267
     35  CD2        0.9250  138.0130  -64.6180 C.ar   26  HIS26       0.1154
     36  CE1       -0.6290  138.8370  -65.9250 C.ar   26  HIS26       0.1986
     37  NE2        0.6470  138.9340  -65.6040 N.ar   26  HIS26      -0.2212
     38  N          0.0630  130.2800  -64.6400 N.3    29  MET29      -0.1230
     39  CA         1.4780  130.1600  -64.9830 C.3    29  MET29       0.1702
     40  C          2.3490  130.0760  -63.7390 C.2    29  MET29       0.2592
     41  O          3.3330  129.3370  -63.7230 O.2    29  MET29      -0.2718
     42  CB         1.9490  131.3150  -65.8750 C.3    29  MET29       0.0401
     43  CG         1.4800  131.2010  -67.3240 C.3    29  MET29       0.0596
     44  SD         1.9620  129.6270  -68.0690 S.3    29  MET29      -0.1393
     45  CE         3.6990  129.9460  -68.3340 C.3    29  MET29       0.0692
     46  N          2.0240  130.8120  -62.6860 N.am   30  ASN30      -0.1974
     47  CA         2.7650  130.6660  -61.4280 C.3    30  ASN30       0.1688
     48  C          2.7890  129.2020  -60.9970 C.2    30  ASN30       0.2292
     49  O          3.8510  128.6630  -60.6910 O.2    30  ASN30      -0.2864
     50  CB         2.1490  131.5460  -60.3420 C.3    30  ASN30       0.1181
     51  CG         2.7800  131.3340  -58.9790 C.2    30  ASN30       0.2629
     52  OD1        2.2320  130.5980  -58.1520 O.2    30  ASN30      -0.2716
     53  ND2        3.9280  131.9700  -58.7490 N.am   30  ASN30      -0.0877
     54  N          4.9050  127.0020  -63.0970 N.3    33  TYR33      -0.1241
     55  CA         6.3160  127.0900  -62.7320 C.3    33  TYR33       0.1605
     56  C          6.6200  126.2080  -61.5260 C.2    33  TYR33       0.2264
     57  O          7.6930  125.6070  -61.4430 O.2    33  TYR33      -0.2867
     58  CB         6.7660  128.5230  -62.4460 C.3    33  TYR33       0.0534
     59  CG         6.6040  129.4400  -63.6400 C.ar   33  TYR33      -0.0201
     60  CD1        6.0750  130.7110  -63.4880 C.ar   33  TYR33      -0.0009
     61  CD2        6.9790  129.0040  -64.9070 C.ar   33  TYR33      -0.0009
     62  CE1        5.9230  131.5490  -64.5850 C.ar   33  TYR33       0.0417
     63  CE2        6.8350  129.8250  -66.0120 C.ar   33  TYR33       0.0417
     64  CZ         6.3110  131.0890  -65.8290 C.ar   33  TYR33       0.1957
     65  OH         6.1610  131.9010  -66.9290 O.3    33  TYR33      -0.2866
     66  N          0.0250  124.8810  -68.3120 N.3    48  LYS48      -0.1245
     67  CA         0.4020  125.9220  -69.2690 C.3    48  LYS48       0.1561
     68  C         -0.5600  125.9430  -70.4470 C.2    48  LYS48       0.2260
     69  O         -0.8310  126.9970  -71.0090 O.2    48  LYS48      -0.2867
     70  CB         1.8350  125.7290  -69.7570 C.3    48  LYS48       0.0271
     71  CG         2.2720  126.6910  -70.8610 C.3    48  LYS48       0.0035
     72  CD         3.7680  126.5730  -71.0870 C.3    48  LYS48       0.0206
     73  CE         4.2230  127.2030  -72.3910 C.3    48  LYS48       0.1093
     74  NZ         5.7020  127.1080  -72.5350 N.3    48  LYS48      -0.1314
     75  N         -2.7040  129.2190  -71.6360 N.3    52  ILE52      -0.1245
     76  CA        -2.7600  129.7140  -73.0200 C.3    52  ILE52       0.1561
     77  C         -4.1970  129.8510  -73.4770 C.2    52  ILE52       0.2260
     78  O         -4.5760  130.7960  -74.1780 O.2    52  ILE52      -0.2867
     79  CB        -1.9280  128.7950  -73.9320 C.3    52  ILE52       0.0252
     80  CG1       -0.4250  128.9060  -73.6440 C.3    52  ILE52       0.0019
     81  CG2       -2.2260  129.0520  -75.3960 C.3    52  ILE52       0.0019
     82  CD1        0.4110  127.7670  -74.1810 C.3    52  ILE52       0.0001
     83  N         -5.0910  133.2350  -72.0890 N.3    55  MET55      -0.1230
     84  CA        -4.5410  134.2740  -72.9390 C.3    55  MET55       0.1702
     85  C         -5.4350  134.5590  -74.1430 C.2    55  MET55       0.2592
     86  O         -5.6310  135.7120  -74.5420 O.2    55  MET55      -0.2718
     87  CB        -3.1570  133.8780  -73.4610 C.3    55  MET55       0.0401
     88  CG        -2.1500  133.6240  -72.3500 C.3    55  MET55       0.0596
     89  SD        -0.6410  132.8810  -73.0130 S.3    55  MET55      -0.1393
     90  CE         0.0580  132.2670  -71.4650 C.3    55  MET55       0.0692
     91  N         -5.9760  133.4980  -74.7320 N.am   56  ARG56      -0.1980
     92  CA        -6.8220  133.6860  -75.9110 C.3    56  ARG56       0.1597
     93  C         -8.1550  134.3040  -75.5290 C.2    56  ARG56       0.2287
     94  O         -8.7120  135.1330  -76.2530 O.2    56  ARG56      -0.2864
     95  CB        -7.0340  132.3580  -76.6410 C.3    56  ARG56       0.0334
     96  CG        -6.1540  132.2310  -77.8710 C.3    56  ARG56       0.0492
     97  CD        -6.7110  131.1940  -78.8370 C.3    56  ARG56       0.2205
     98  NE        -6.3060  129.8410  -78.4700 N.pl3  56  ARG56      -0.0865
     99  CZ        -5.0790  129.3650  -78.6460 C.cat  56  ARG56       0.5346
    100  NH1       -4.1500  130.1510  -79.1680 N.pl3  56  ARG56       0.1354
    101  NH2       -4.7930  128.1240  -78.2920 N.pl3  56  ARG56       0.1354
    102  N         -8.5350  136.3400  -73.0220 N.3    58  ALA58      -0.1231
    103  CA        -8.1630  137.7300  -72.8040 C.3    58  ALA58       0.1694
    104  C         -8.1410  138.4990  -74.1270 C.2    58  ALA58       0.2591
    105  O         -8.6880  139.6070  -74.1840 O.2    58  ALA58      -0.2718
    106  CB        -6.8110  137.8060  -72.1110 C.3    58  ALA58       0.0304
    107  N         -7.5280  137.9350  -75.1680 N.am   59  GLU59      -0.1979
    108  CA        -7.3980  138.5390  -76.4910 C.3    59  GLU59       0.1602
    109  C         -8.7360  138.7190  -77.1920 C.2    59  GLU59       0.2287
    110  O         -9.0230  139.7720  -77.7650 O.2    59  GLU59      -0.2864
    111  CB        -6.4670  137.6890  -77.3660 C.3    59  GLU59       0.0415
    112  CG        -6.3260  138.2020  -78.7910 C.3    59  GLU59       0.1163
    113  CD        -5.3640  137.3470  -79.5920 C.2    59  GLU59       0.3649
    114  OE1       -5.2970  136.1290  -79.3330 O.co2  59  GLU59      -0.2457
    115  OE2       -4.6760  137.8910  -80.4820 O.co2  59  GLU59      -0.2457
    116  N        -10.5360  141.5390  -75.4890 N.3    62  ALA62      -0.1245
    117  CA        -9.9880  142.8230  -75.9120 C.3    62  ALA62       0.1562
    118  C        -10.4080  143.1660  -77.3330 C.2    62  ALA62       0.2260
    119  O        -10.7920  144.2910  -77.6690 O.2    62  ALA62      -0.2867
    120  CB        -8.4750  142.7890  -75.8090 C.3    62  ALA62       0.0290
    121  N         -5.6690  146.8020  -68.7000 N.3    74  THR74      -0.1218
    122  CA        -4.3810  146.1430  -68.5260 C.3    74  THR74       0.1862
    123  C         -4.2300  145.6230  -67.1070 C.2    74  THR74       0.2287
    124  O         -3.1570  145.1520  -66.7150 O.2    74  THR74      -0.2866
    125  CB        -3.2150  147.0880  -68.8590 C.3    74  THR74       0.1770
    126  OG1       -3.1240  148.1100  -67.8600 O.3    74  THR74      -0.2211
    127  CG2       -3.4750  147.7800  -70.1890 C.3    74  THR74       0.0375
    128  N          4.7750  121.2550  -74.2620 N.3   162  THR162     -0.1218
    129  CA         3.4610  121.6950  -74.7180 C.3   162  THR162      0.1862
    130  C          3.4330  121.8200  -76.2330 C.2   162  THR162      0.2287
    131  O          2.5760  122.4150  -76.8750 O.2   162  THR162     -0.2866
    132  CB         3.0980  123.0500  -74.0870 C.3   162  THR162      0.1770
    133  OG1        4.1050  123.9990  -74.4440 O.3   162  THR162     -0.2211
    134  CG2        3.0810  122.9150  -72.5680 C.3   162  THR162      0.0375
    135  N          5.5420  122.3180  -80.1330 N.3   164  THR164     -0.1203
    136  CA         6.5140  123.1630  -80.8230 C.3   164  THR164      0.1994
    137  C          6.4300  124.5910  -80.2870 C.2   164  THR164      0.2618
    138  O          5.3420  125.0980  -80.0030 O.2   164  THR164     -0.2717
    139  CB         6.2950  123.0320  -82.3460 C.3   164  THR164      0.1784
    140  OG1        7.0090  124.0430  -83.0630 O.3   164  THR164     -0.2211
    141  CG2        4.8200  123.2060  -82.7160 C.3   164  THR164      0.0376
    142  N          7.6000  125.1960  -80.1310 N.am  165  ALA165     -0.1965
    143  CA         7.8260  126.5570  -79.6880 C.3   165  ALA165      0.1728
    144  C          6.9180  127.5560  -80.4010 C.2   165  ALA165      0.2617
    145  O          6.5790  127.4800  -81.5820 O.2   165  ALA165     -0.2715
    146  CB         9.2850  126.9540  -79.8870 C.3   165  ALA165      0.0334
    147  N          6.5490  128.5510  -79.6040 N.am  166  SER166     -0.1936
    148  CA         5.7740  129.7050  -79.9990 C.3   166  SER166      0.2055
    149  C          6.3380  130.4120  -81.2300 C.2   166  SER166      0.2642
    150  O          7.5460  130.6400  -81.3190 O.2   166  SER166     -0.2714
    151  CB         5.6640  130.7090  -78.8450 C.3   166  SER166      0.2130
    152  OG         6.9160  131.0200  -78.2630 O.3   166  SER166     -0.2179
    153  N          5.4310  130.7530  -82.1290 N.am  167  LYS167     -0.1977
    154  CA         5.6680  131.6600  -83.2370 C.3   167  LYS167      0.1596
    155  C          6.0050  133.0430  -82.6820 C.2   167  LYS167      0.2287
    156  O          5.1200  133.6940  -82.1140 O.2   167  LYS167     -0.2864
    157  CB         4.4460  131.7410  -84.1480 C.3   167  LYS167      0.0298
    158  CG         3.1030  132.2030  -82.9100 C.3   167  LYS167      0.0038
    159  CD         1.8040  132.7520  -83.4490 C.3   167  LYS167      0.0206
    160  CE         0.6290  132.1790  -82.6590 C.3   167  LYS167      0.1093
    161  NZ        -0.6690  132.8020  -83.0610 N.3   167  LYS167     -0.1314
@<TRIPOS>BOND
     1   157   154    1
     2   157   158    1
     3   159   158    1
     4   159   160    1
     5   154   155    1
     6   154   153    1
     7   140   139    1
     8   161   160    1
     9   141   139    1
    10   155   156    2
    11   139   136    1
    12   153   149   am
    13   145   144    2
    14   150   149    2
    15   149   148    1
    16   136   137    1
    17   136   135    1
    18   115   113   ar
    19   144   143    1
    20   144   147   am
    21   137   142   am
    22   137   138    2
    23   142   143    1
    24   148   147    1
    25   148   151    1
    26   146   143    1
    27   113   114   ar
    28   113   112    1
    29   100    99    1
    30   151   152    1
    31    97    98    1
    32    97    96    1
    33   112   111    1
    34    99    98    2
    35    99   101    1
    36    96    95    1
    37   110   109    2
    38   119   118    2
    39   111   108    1
    40   118   117    1
    41   109   108    1
    42   131   130    2
    43    95    92    1
    44   108   107    1
    45    94    93    2
    46   130   129    1
    47   117   120    1
    48   117   116    1
    49    92    93    1
    50    92    91    1
    51    81    79    1
    52   107   104   am
    53    91    85   am
    54   129   128    1
    55   129   132    1
    56    86    85    2
    57   133   132    1
    58   105   104    2
    59    82    80    1
    60    78    77    2
    61    85    84    1
    62   104   103    1
    63   132   134    1
    64    79    80    1
    65    79    76    1
    66    77    76    1
    67    87    84    1
    68    87    88    1
    69   102   103    1
    70    76    75    1
    71    89    88    1
    72    89    90    1
    73    84    83    1
    74   103   106    1
    75    10     9    1
    76    74    73    1
    77    73    72    1
    78     9    11    1
    79     9     8    2
    80     7     8    1
    81     7     6    1
    82    72    71    1
    83    69    68    2
    84    71    70    1
    85     6     5    1
    86    68    67    1
    87     5     2    1
    88   127   125    1
    89    27    25    1
    90    70    67    1
    91    67    66    1
    92     2     1    1
    93     2     3    1
    94    19    17    1
    95    25    24    1
    96   125   122    1
    97   125   126    1
    98   121   122    1
    99   122   123    1
   100    26    24    1
   101    45    44    1
   102    17    18    1
   103    17    16    1
   104     3     4    2
   105    44    43    1
   106    24    21    1
   107    43    42    1
   108    12    13    1
   109   123   124    2
   110    65    64    1
   111    16    13    1
   112    13    14    1
   113    21    20    1
   114    21    22    1
   115    63    64   ar
   116    63    61   ar
   117    36    37   ar
   118    36    34   ar
   119    42    39    1
   120    64    62   ar
   121    22    23    2
   122    22    28   am
   123    37    35   ar
   124    14    15    2
   125    34    33   ar
   126    39    38    1
   127    39    40    1
   128    28    29    1
   129    61    59   ar
   130    35    33   ar
   131    62    60   ar
   132    33    32    1
   133    29    32    1
   134    29    30    1
   135    40    41    2
   136    40    46   am
   137    59    60   ar
   138    59    58    1
   139    54    55    1
   140    30    31    2
   141    55    58    1
   142    55    56    1
   143    46    47    1
   144    56    57    2
   145    47    48    1
   146    47    50    1
   147    48    49    2
   148    50    51    1
   149    51    53   am
   150    51    52    2
