@<TRIPOS>MOLECULE
tmp/1nfwA00.pdb
 187 186 0 0 0
SMALL
GASTEIGER

@<TRIPOS>ATOM
      1  N          9.9550    2.3300   10.9730 N.3    83  GLU83      -0.1231
      2  CA         9.2100    1.2180   11.5570 C.3    83  GLU83       0.1699
      3  C          9.7140    0.7200   12.9190 C.2    83  GLU83       0.2593
      4  O          8.9200    0.4580   13.8240 O.2    83  GLU83      -0.2718
      5  CB         9.1800    0.0450   10.5740 C.3    83  GLU83       0.0402
      6  CG         8.2910   -1.1090   11.0070 C.3    83  GLU83       0.1161
      7  CD         8.6770   -2.4200   10.3510 C.2    83  GLU83       0.3649
      8  OE1        9.1010   -2.3970    9.1760 O.co2  83  GLU83      -0.2457
      9  OE2        8.5580   -3.4740   11.0100 O.co2  83  GLU83      -0.2457
     10  N         11.0300    0.5980   13.0630 N.am   84  THR84      -0.1939
     11  CA        11.6130    0.0910   14.2990 C.3    84  THR84       0.2028
     12  C         12.4500    1.0810   15.1170 C.2    84  THR84       0.2642
     13  O         12.9820    0.7220   16.1730 O.2    84  THR84      -0.2714
     14  CB        12.4780   -1.1370   13.9950 C.3    84  THR84       0.1808
     15  OG1       13.5020   -0.7760   13.0630 O.3    84  THR84      -0.2208
     16  CG2       11.6320   -2.2360   13.3790 C.3    84  THR84       0.0379
     17  N         12.5690    2.3160   14.6350 N.am   85  TYR85      -0.1973
     18  CA        13.3440    3.3390   15.3340 C.3    85  TYR85       0.1639
     19  C         14.8300    3.0060   15.3330 C.2    85  TYR85       0.2290
     20  O         15.5970    3.5820   16.1010 O.2    85  TYR85      -0.2864
     21  CB        12.8820    3.4660   16.7850 C.3    85  TYR85       0.0560
     22  CG        11.6640    4.3370   17.0060 C.ar   85  TYR85      -0.0198
     23  CD1       10.3780    3.8480   16.7770 C.ar   85  TYR85      -0.0009
     24  CD2       11.7910    5.6280   17.5200 C.ar   85  TYR85      -0.0009
     25  CE1        9.2510    4.6200   17.0650 C.ar   85  TYR85       0.0417
     26  CE2       10.6720    6.4050   17.8090 C.ar   85  TYR85       0.0417
     27  CZ         9.4080    5.8950   17.5850 C.ar   85  TYR85       0.1957
     28  OH         8.3040    6.6450   17.9110 O.3    85  TYR85      -0.2866
     29  N          2.6870   10.6100   31.1290 N.3   135  GLU135     -0.1245
     30  CA         2.3790   10.0010   29.8340 C.3   135  GLU135      0.1567
     31  C          1.2910   10.7390   29.0540 C.2   135  GLU135      0.2260
     32  O          1.3840   10.8790   27.8300 O.2   135  GLU135     -0.2867
     33  CB         1.9620    8.5370   30.0160 C.3   135  GLU135      0.0388
     34  CG         2.0470    7.6960   28.7420 C.3   135  GLU135      0.1160
     35  CD         1.5900    6.2570   28.9520 C.2   135  GLU135      0.3649
     36  OE1        1.9390    5.6670   29.9980 O.co2 135  GLU135     -0.2457
     37  OE2        0.8840    5.7160   28.0710 O.co2 135  GLU135     -0.2457
     38  N          8.7460   -4.4780   21.4160 N.3   162  PHE162     -0.1227
     39  CA         9.3210   -4.2330   20.1030 C.3   162  PHE162      0.1736
     40  C         10.7930   -4.6080   20.1280 C.2   162  PHE162      0.2595
     41  O         11.3900   -4.7250   21.1930 O.2   162  PHE162     -0.2718
     42  CB         9.1490   -2.7650   19.7170 C.3   162  PHE162      0.0547
     43  CG         7.7290   -2.2780   19.8070 C.ar  162  PHE162     -0.0202
     44  CD1        6.8440   -2.4770   18.7540 C.ar  162  PHE162     -0.0042
     45  CD2        7.2740   -1.6240   20.9440 C.ar  162  PHE162     -0.0042
     46  CE1        5.5220   -2.0300   18.8340 C.ar  162  PHE162     -0.0003
     47  CE2        5.9570   -1.1760   21.0340 C.ar  162  PHE162     -0.0003
     48  CZ         5.0810   -1.3800   19.9770 C.ar  162  PHE162     -0.0000
     49  N         11.3790   -4.7940   18.9540 N.am  163  ILE163     -0.1980
     50  CA        12.7800   -5.1780   18.8690 C.3   163  ILE163      0.1595
     51  C         13.7640   -4.1320   19.4050 C.2   163  ILE163      0.2287
     52  O         13.5950   -2.9310   19.1920 O.2   163  ILE163     -0.2864
     53  CB        13.1580   -5.5090   17.4190 C.3   163  ILE163      0.0276
     54  CG1       14.5150   -6.2040   17.3860 C.3   163  ILE163      0.0022
     55  CG2       13.1740   -4.2420   16.5870 C.3   163  ILE163      0.0022
     56  CD1       15.0330   -6.4600   15.9950 C.3   163  ILE163      0.0001
     57  N         11.0410    8.5820   34.2700 N.3   179  ASP179     -0.1225
     58  CA        11.4070    8.1860   32.9180 C.3   179  ASP179      0.1805
     59  C         11.3130    9.3900   31.9880 C.2   179  ASP179      0.2598
     60  O         10.7260   10.4090   32.3360 O.2   179  ASP179     -0.2718
     61  CB        10.4460    7.0880   32.4410 C.3   179  ASP179      0.1424
     62  CG        10.8190    6.5220   31.0840 C.2   179  ASP179      0.3668
     63  OD1       12.0080    6.5860   30.7150 O.co2 179  ASP179     -0.2456
     64  OD2        9.9190    6.0060   30.3840 O.co2 179  ASP179     -0.2456
     65  N         11.9160    9.2790   30.8130 N.am  180  ALA180     -0.1966
     66  CA        11.8440   10.3510   29.8420 C.3   180  ALA180      0.1728
     67  C         10.4370   10.1990   29.2970 C.2   180  ALA180      0.2616
     68  O          9.6820    9.3530   29.7720 O.2   180  ALA180     -0.2715
     69  CB        12.8790   10.1400   28.7350 C.3   180  ALA180      0.0334
     70  N         10.0760   11.0150   28.3180 N.am  181  CYS181     -0.1954
     71  CA         8.7530   10.9250   27.7130 C.3   181  CYS181      0.1843
     72  C          8.6730   11.7550   26.4370 C.2   181  CYS181      0.2625
     73  O          9.6680   12.3360   26.0020 O.2   181  CYS181     -0.2714
     74  CB         7.6740   11.3770   28.7020 C.3   181  CYS181      0.0997
     75  SG         5.9940   10.8540   28.2200 S.3   181  CYS181     -0.0797
     76  N          7.4890   11.8030   25.8350 N.am  182  GLN182     -0.1977
     77  CA         7.2960   12.5650   24.6070 C.3   182  GLN182      0.1601
     78  C          7.7230   14.0250   24.7800 C.2   182  GLN182      0.2287
     79  O          7.3260   14.6930   25.7390 O.2   182  GLN182     -0.2864
     80  CB         5.8290   12.5000   24.1800 C.3   182  GLN182      0.0394
     81  CG         5.6270   12.6570   22.6860 C.3   182  GLN182      0.0908
     82  CD         4.1680   12.6300   22.2890 C.2   182  GLN182      0.2608
     83  OE1        3.2790   12.7410   23.1350 O.2   182  GLN182     -0.2717
     84  NE2        3.9110   12.4840   20.9930 N.am  182  GLN182     -0.0878
     85  N         12.3490   13.4390   23.3700 N.3   185  SER185     -0.1217
     86  CA        12.9430   12.7020   22.2580 C.3   185  SER185      0.1889
     87  C         13.9840   13.5240   21.5310 C.2   185  SER185      0.2288
     88  O         13.7650   14.7060   21.2690 O.2   185  SER185     -0.2866
     89  CB        11.8640   12.2600   21.2640 C.3   185  SER185      0.2089
     90  OG        10.6130   12.0610   21.9020 O.3   185  SER185     -0.2183
     91  N         17.6670   10.3370   23.5520 N.3   203  VAL203     -0.1231
     92  CA        16.3330    9.8750   23.9270 C.3   203  VAL203      0.1692
     93  C         15.6910    9.3840   22.6300 C.2   203  VAL203      0.2593
     94  O         15.5470   10.1440   21.6690 O.2   203  VAL203     -0.2718
     95  CB        15.4650   11.0080   24.5380 C.3   203  VAL203      0.0266
     96  CG1       14.0430   10.4990   24.7830 C.3   203  VAL203      0.0020
     97  CG2       16.0720   11.4890   25.8490 C.3   203  VAL203      0.0020
     98  N         15.3220    8.1090   22.5910 N.am  204  SER204     -0.1938
     99  CA        14.7380    7.5540   21.3810 C.3   204  SER204      0.2055
    100  C         13.2630    7.2250   21.4990 C.2   204  SER204      0.2643
    101  O         12.4300    7.8260   20.8210 O.2   204  SER204     -0.2714
    102  CB        15.5050    6.3040   20.9560 C.3   204  SER204      0.2130
    103  OG        15.2200    5.9770   19.6090 O.3   204  SER204     -0.2179
    104  N         12.9300    6.2700   22.3570 N.am  205  TRP205     -0.1959
    105  CA        11.5370    5.8940   22.4970 C.3   205  TRP205      0.1771
    106  C         11.2760    5.0310   23.7110 C.2   205  TRP205      0.2620
    107  O         12.1720    4.7500   24.5110 O.2   205  TRP205     -0.2715
    108  CB        11.0770    5.1420   21.2470 C.3   205  TRP205      0.0590
    109  CG        11.8360    3.8540   21.0010 C.ar  205  TRP205      0.0006
    110  CD1       12.9940    3.7040   20.2850 C.ar  205  TRP205      0.0946
    111  CD2       11.4850    2.5420   21.4720 C.ar  205  TRP205      0.0152
    112  NE1       13.3840    2.3830   20.2820 N.ar  205  TRP205     -0.2442
    113  CE2       12.4760    1.6500   21.0020 C.ar  205  TRP205      0.0810
    114  CE3       10.4280    2.0360   22.2450 C.ar  205  TRP205      0.0012
    115  CZ2       12.4430    0.2770   21.2790 C.ar  205  TRP205      0.0191
    116  CZ3       10.3940    0.6700   22.5210 C.ar  205  TRP205      0.0001
    117  CH2       11.3970   -0.1920   22.0370 C.ar  205  TRP205      0.0015
    118  N         10.0230    4.6140   23.8260 N.am  206  GLY206     -0.1940
    119  CA         9.6050    3.7640   24.9180 C.3   206  GLY206      0.2014
    120  C          8.1620    3.4240   24.6400 C.2   206  GLY206      0.2639
    121  O          7.5980    3.9130   23.6650 O.2   206  GLY206     -0.2714
    122  N          7.5730    2.5700   25.4670 N.am  207  GLU207     -0.1963
    123  CA         6.1700    2.2120   25.3170 C.3   207  GLU207      0.1733
    124  C          5.4860    3.0220   26.4020 C.2   207  GLU207      0.2617
    125  O          5.4380    2.6190   27.5650 O.2   207  GLU207     -0.2715
    126  CB         5.9660    0.7180   25.5500 C.3   207  GLU207      0.0429
    127  CG         6.5280   -0.1400   24.4350 C.3   207  GLU207      0.1163
    128  CD         6.2400   -1.6110   24.6380 C.2   207  GLU207      0.3649
    129  OE1        7.0970   -2.3200   25.2090 O.co2 207  GLU207     -0.2457
    130  OE2        5.1510   -2.0550   24.2230 O.co2 207  GLU207     -0.2457
    131  N          4.9710    4.1830   26.0190 N.am  208  GLY208     -0.1940
    132  CA         4.3470    5.0440   26.9970 C.3   208  GLY208      0.2014
    133  C          5.4780    5.7300   27.7420 C.2   208  GLY208      0.2639
    134  O          6.5360    6.0010   27.1690 O.2   208  GLY208     -0.2714
    135  N          5.2750    6.0020   29.0210 N.am  209  CYS209     -0.1967
    136  CA         6.3040    6.6600   29.8050 C.3   209  CYS209      0.1712
    137  C          6.2050    6.2450   31.2640 C.2   209  CYS209      0.2296
    138  O          5.1430    6.3440   31.8810 O.2   209  CYS209     -0.2864
    139  CB         6.1660    8.1860   29.6860 C.3   209  CYS209      0.0983
    140  SG         6.1620    8.8390   27.9810 S.3   209  CYS209     -0.0798
    141  N          6.1310    3.3850   32.5030 N.3   211  ARG211     -0.1245
    142  CA         5.2650    2.2280   32.7080 C.3   211  ARG211      0.1563
    143  C          6.0180    1.1200   33.4510 C.2   211  ARG211      0.2260
    144  O          7.2410    0.9960   33.3180 O.2   211  ARG211     -0.2867
    145  CB         4.7860    1.6820   31.3680 C.3   211  ARG211      0.0307
    146  CG         3.7350    2.5230   30.6810 C.3   211  ARG211      0.0489
    147  CD         3.1420    1.7460   29.5220 C.3   211  ARG211      0.2205
    148  NE         2.2950    2.5730   28.6780 N.pl3 211  ARG211     -0.0865
    149  CZ         1.8840    2.2150   27.4700 C.cat 211  ARG211      0.5346
    150  NH1        2.2450    1.0410   26.9690 N.pl3 211  ARG211      0.1354
    151  NH2        1.1140    3.0300   26.7620 N.pl3 211  ARG211      0.1354
    152  N         11.0440    0.0530   30.0220 N.3   215  TYR215     -0.1227
    153  CA        12.1780    0.9490   30.2330 C.3   215  TYR215      0.1736
    154  C         12.2690    2.0380   29.1780 C.2   215  TYR215      0.2596
    155  O         11.4640    2.0930   28.2470 O.2   215  TYR215     -0.2718
    156  CB        13.4850    0.1540   30.2340 C.3   215  TYR215      0.0548
    157  CG        13.5320   -0.9040   31.3020 C.ar  215  TYR215     -0.0200
    158  CD1       13.7880   -0.5630   32.6270 C.ar  215  TYR215     -0.0009
    159  CD2       13.2710   -2.2390   30.9990 C.ar  215  TYR215     -0.0009
    160  CE1       13.7790   -1.5190   33.6300 C.ar  215  TYR215      0.0417
    161  CE2       13.2600   -3.2060   31.9940 C.ar  215  TYR215      0.0417
    162  CZ        13.5140   -2.8390   33.3080 C.ar  215  TYR215      0.1957
    163  OH        13.5060   -3.7850   34.3080 O.3   215  TYR215     -0.2866
    164  N         13.2560    2.9120   29.3450 N.am  216  GLY216     -0.1942
    165  CA        13.4700    3.9740   28.3890 C.3   216  GLY216      0.2014
    166  C         14.4980    3.4610   27.4090 C.2   216  GLY216      0.2639
    167  O         15.5130    2.8840   27.8150 O.2   216  GLY216     -0.2714
    168  N         14.2340    3.6490   26.1220 N.am  217  ILE217     -0.1963
    169  CA        15.1520    3.1930   25.0900 C.3   217  ILE217      0.1727
    170  C         15.8390    4.3820   24.4110 C.2   217  ILE217      0.2616
    171  O         15.1820    5.3110   23.9230 O.2   217  ILE217     -0.2715
    172  CB        14.4240    2.3300   24.0320 C.3   217  ILE217      0.0290
    173  CG1       13.3470    1.4680   24.7030 C.3   217  ILE217      0.0022
    174  CG2       15.4320    1.4480   23.3090 C.3   217  ILE217      0.0023
    175  CD1       13.9070    0.2920   25.4720 C.3   217  ILE217      0.0001
    176  N         17.1700    4.3220   24.3890 N.am  218  TYR218     -0.1974
    177  CA        18.0190    5.3640   23.8290 C.3   218  TYR218      0.1639
    178  C         18.8650    4.8630   22.6880 C.2   218  TYR218      0.2290
    179  O         19.1970    3.6790   22.6190 O.2   218  TYR218     -0.2864
    180  CB        18.9750    5.8950   24.9020 C.3   218  TYR218      0.0560
    181  CG        18.2770    6.4120   26.1240 C.ar  218  TYR218     -0.0198
    182  CD1       17.6820    5.5340   27.0320 C.ar  218  TYR218     -0.0009
    183  CD2       18.1430    7.7840   26.3410 C.ar  218  TYR218     -0.0009
    184  CE1       16.9610    6.0090   28.1190 C.ar  218  TYR218      0.0417
    185  CE2       17.4290    8.2660   27.4190 C.ar  218  TYR218      0.0417
    186  CZ        16.8360    7.3760   28.3010 C.ar  218  TYR218      0.1957
    187  OH        16.0900    7.8480   29.3440 O.3   218  TYR218     -0.2866
@<TRIPOS>BOND
     1     8     7   ar
     2     7     6    1
     3     7     9   ar
     4     5     6    1
     5     5     2    1
     6     1     2    1
     7     2     3    1
     8     3    10   am
     9     3     4    2
    10    10    11    1
    11    15    14    1
    12    16    14    1
    13    14    11    1
    14    11    12    1
    15    17    12   am
    16    17    18    1
    17    12    13    2
    18    19    18    1
    19    19    20    2
    20    18    21    1
    21    56    54    1
    22    55    53    1
    23    23    22   ar
    24    23    25   ar
    25    21    22    1
    26    22    24   ar
    27    25    27   ar
    28    54    53    1
    29    53    50    1
    30    24    26   ar
    31    27    26   ar
    32    27    28    1
    33    44    46   ar
    34    44    43   ar
    35    46    48   ar
    36    50    49    1
    37    50    51    1
    38    49    40   am
    39    52    51    2
    40   103   102    1
    41    42    43    1
    42    42    39    1
    43    43    45   ar
    44    48    47   ar
    45    39    40    1
    46    39    38    1
    47    40    41    2
    48   112   110   ar
    49   112   113   ar
    50   110   109   ar
    51   101   100    2
    52    45    47   ar
    53   102    99    1
    54    84    82   am
    55   109   108    1
    56   109   111   ar
    57   113   115   ar
    58   113   111   ar
    59   108   105    1
    60    89    90    1
    61    89    86    1
    62    88    87    2
    63   115   117   ar
    64    99   100    1
    65    99    98    1
    66   111   114   ar
    67   100   104   am
    68    87    86    1
    69    94    93    2
    70   117   116   ar
    71   114   116   ar
    72    86    85    1
    73    82    81    1
    74    82    83    2
    75   104   105    1
    76   105   106    1
    77    98    93   am
    78   179   178    2
    79    93    92    1
    80    81    80    1
    81   178   177    1
    82   174   172    1
    83    91    92    1
    84   121   120    2
    85   106   118   am
    86   106   107    2
    87   118   119    1
    88   177   176    1
    89   177   180    1
    90   171   170    2
    91    92    95    1
    92   172   173    1
    93   172   169    1
    94    80    77    1
    95   130   128   ar
    96   176   170   am
    97   170   169    1
    98   127   128    1
    99   127   126    1
   100    95    96    1
   101    95    97    1
   102    77    78    1
   103    77    76    1
   104   128   129   ar
   105   120   119    1
   106   120   122   am
   107   173   175    1
   108    78    79    2
   109   180   181    1
   110   169   168    1
   111   123   122    1
   112   123   126    1
   113   123   124    1
   114    76    72   am
   115    73    72    2
   116   131   124   am
   117   131   132    1
   118   168   166   am
   119   181   183   ar
   120   181   182   ar
   121   183   185   ar
   122   124   125    2
   123    72    71    1
   124   151   149    1
   125   150   149    1
   126   132   133    1
   127   182   184   ar
   128   134   133    2
   129   166   167    2
   130   166   165    1
   131   185   186   ar
   132   149   148    2
   133    71    70    1
   134    71    74    1
   135   133   135   am
   136    32    31    2
   137   140    75    1
   138   140   139    1
   139    37    35   ar
   140   184   186   ar
   141    75    74    1
   142   155   154    2
   143   186   187    1
   144    70    67   am
   145   165   164    1
   146   148   147    1
   147    69    66    1
   148    34    35    1
   149    34    33    1
   150    35    36   ar
   151   135   136    1
   152    31    30    1
   153   154   164   am
   154   154   153    1
   155    67    68    2
   156    67    66    1
   157   147   146    1
   158   139   136    1
   159   136   137    1
   160    30    33    1
   161    30    29    1
   162    66    65    1
   163   152   153    1
   164   153   156    1
   165   156   157    1
   166    64    62   ar
   167   146   145    1
   168    63    62   ar
   169    65    59   am
   170   159   157   ar
   171   159   161   ar
   172    62    61    1
   173   137   138    2
   174   157   158   ar
   175   145   142    1
   176    59    60    2
   177    59    58    1
   178   161   162   ar
   179    61    58    1
   180   141   142    1
   181   158   160   ar
   182   142   143    1
   183    58    57    1
   184   162   160   ar
   185   162   163    1
   186   144   143    2
