@<TRIPOS>MOLECULE
tmp/1nfxA00.pdb
 185 183 0 0 0
SMALL
GASTEIGER

@<TRIPOS>ATOM
      1  N         14.2190   10.6730   14.2570 N.3    42  HIS42      -0.1241
      2  CA        12.7680   10.6190   14.2100 C.3    42  HIS42       0.1621
      3  C         12.1320   11.9650   14.5500 C.2    42  HIS42       0.2264
      4  O         10.9310   12.1510   14.3800 O.2    42  HIS42      -0.2867
      5  CB        12.2480    9.5100   15.1410 C.3    42  HIS42       0.0745
      6  CG        12.0610    9.9290   16.5700 C.ar   42  HIS42       0.0817
      7  ND1       12.9130    9.5260   17.5790 N.ar   42  HIS42      -0.2268
      8  CD2       11.0800   10.6450   17.1710 C.ar   42  HIS42       0.1154
      9  CE1       12.4610    9.9730   18.7380 C.ar   42  HIS42       0.1986
     10  NE2       11.3510   10.6550   18.5200 N.ar   42  HIS42      -0.2212
     11  N          9.9280    2.3530   11.3240 N.3    83  GLU83      -0.1231
     12  CA         9.1950    1.2120   11.8670 C.3    83  GLU83       0.1699
     13  C          9.7250    0.7160   13.2150 C.2    83  GLU83       0.2593
     14  O          8.9410    0.3630   14.0940 O.2    83  GLU83      -0.2718
     15  CB         9.1930    0.0550   10.8600 C.3    83  GLU83       0.0402
     16  CG         8.2430   -1.0840   11.2170 C.3    83  GLU83       0.1161
     17  CD         6.7920   -0.6440   11.2770 C.2    83  GLU83       0.3649
     18  OE1        6.0790   -1.0840   12.2020 O.co2  83  GLU83      -0.2457
     19  OE2        6.3620    0.1390   10.4040 O.co2  83  GLU83      -0.2457
     20  N         11.0440    0.7140   13.3880 N.am   84  THR84      -0.1939
     21  CA        11.6490    0.2150   14.6220 C.3    84  THR84       0.2028
     22  C         12.5090    1.1940   15.4270 C.2    84  THR84       0.2642
     23  O         12.9320    0.8680   16.5450 O.2    84  THR84      -0.2714
     24  CB        12.5230   -1.0000   14.3160 C.3    84  THR84       0.1808
     25  OG1       13.5580   -0.6110   13.4020 O.3    84  THR84      -0.2208
     26  CG2       11.6870   -2.1180   13.6850 C.3    84  THR84       0.0379
     27  N         12.7780    2.3720   14.8610 N.am   85  TYR85      -0.1973
     28  CA        13.5990    3.3920   15.5190 C.3    85  TYR85       0.1639
     29  C         15.0850    3.0550   15.4950 C.2    85  TYR85       0.2290
     30  O         15.8590    3.5950   16.2900 O.2    85  TYR85      -0.2864
     31  CB        13.1840    3.5820   16.9780 C.3    85  TYR85       0.0560
     32  CG        11.9070    4.3570   17.1640 C.ar   85  TYR85      -0.0198
     33  CD1       10.6700    3.7310   17.0320 C.ar   85  TYR85      -0.0009
     34  CD2       11.9290    5.7090   17.5090 C.ar   85  TYR85      -0.0009
     35  CE1        9.4870    4.4240   17.2440 C.ar   85  TYR85       0.0417
     36  CE2       10.7490    6.4140   17.7230 C.ar   85  TYR85       0.0417
     37  CZ         9.5340    5.7610   17.5910 C.ar   85  TYR85       0.1957
     38  OH         8.3620    6.4320   17.8240 O.3    85  TYR85      -0.2866
     39  N          2.7410   10.7590   31.5140 N.3   135  GLU135     -0.1245
     40  CA         2.3860   10.1480   30.2310 C.3   135  GLU135      0.1567
     41  C          1.2550   10.8590   29.4970 C.2   135  GLU135      0.2260
     42  O          1.2970   11.0240   28.2750 O.2   135  GLU135     -0.2867
     43  CB         1.9950    8.6880   30.4350 C.3   135  GLU135      0.0388
     44  CG         1.9540    7.8790   29.1560 C.3   135  GLU135      0.1160
     45  CD         1.6160    6.4220   29.4030 C.2   135  GLU135      0.3649
     46  OE1        2.2050    5.8220   30.3320 O.co2 135  GLU135     -0.2457
     47  OE2        0.7630    5.8800   28.6670 O.co2 135  GLU135     -0.2457
     48  N          8.9670   -4.6790   21.6940 N.3   162  PHE162     -0.1227
     49  CA         9.5750   -4.3780   20.4060 C.3   162  PHE162      0.1736
     50  C         11.0660   -4.6870   20.4030 C.2   162  PHE162      0.2595
     51  O         11.6920   -4.8420   21.4560 O.2   162  PHE162     -0.2718
     52  CB         9.3370   -2.9100   20.0380 C.3   162  PHE162      0.0547
     53  CG         7.8900   -2.5020   20.0770 C.ar  162  PHE162     -0.0202
     54  CD1        7.0320   -2.8420   19.0380 C.ar  162  PHE162     -0.0042
     55  CD2        7.3800   -1.7950   21.1640 C.ar  162  PHE162     -0.0042
     56  CE1        5.6790   -2.4870   19.0810 C.ar  162  PHE162     -0.0003
     57  CE2        6.0310   -1.4350   21.2190 C.ar  162  PHE162     -0.0003
     58  CZ         5.1800   -1.7830   20.1750 C.ar  162  PHE162     -0.0000
     59  N         11.6250   -4.7700   19.2030 N.am  163  ILE163     -0.1980
     60  CA        13.0320   -5.0830   19.0210 C.3   163  ILE163      0.1595
     61  C         14.0150   -4.0370   19.5510 C.2   163  ILE163      0.2287
     62  O         13.8900   -2.8460   19.2710 O.2   163  ILE163     -0.2864
     63  CB        13.3350   -5.3030   17.5410 C.3   163  ILE163      0.0276
     64  CG1       14.7760   -5.7760   17.3790 C.3   163  ILE163      0.0022
     65  CG2       13.0830   -4.0180   16.7740 C.3   163  ILE163      0.0022
     66  CD1       15.1900   -5.9850   15.9490 C.3   163  ILE163      0.0001
     67  N         11.2150    8.6530   34.5960 N.3   179  ASP179     -0.1225
     68  CA        11.5870    8.2470   33.2510 C.3   179  ASP179      0.1805
     69  C         11.4380    9.4520   32.3310 C.2   179  ASP179      0.2598
     70  O         10.9010   10.4830   32.7310 O.2   179  ASP179     -0.2718
     71  CB        10.6590    7.1110   32.8000 C.3   179  ASP179      0.1424
     72  CG        11.0060    6.5690   31.4300 C.2   179  ASP179      0.3668
     73  OD1       12.1650    6.7310   30.9920 O.co2 179  ASP179     -0.2456
     74  OD2       10.1140    5.9720   30.7870 O.co2 179  ASP179     -0.2456
     75  N         11.9450    9.3390   31.1110 N.am  180  ALA180     -0.1966
     76  CA        11.8100   10.4190   30.1560 C.3   180  ALA180      0.1728
     77  C         10.3880   10.2510   29.6540 C.2   180  ALA180      0.2616
     78  O          9.6630    9.3880   30.1450 O.2   180  ALA180     -0.2715
     79  CB        12.8070   10.2530   29.0160 C.3   180  ALA180      0.0334
     80  N          9.9830   11.0730   28.6960 N.am  181  CYS181     -0.1954
     81  CA         8.6410   10.9830   28.1420 C.3   181  CYS181      0.1843
     82  C          8.5850   11.7720   26.8400 C.2   181  CYS181      0.2625
     83  O          9.6120   12.2520   26.3620 O.2   181  CYS181     -0.2714
     84  CB         7.6080   11.5100   29.1490 C.3   181  CYS181      0.0997
     85  SG         5.8740   11.0570   28.7800 S.3   181  CYS181     -0.0797
     86  N          7.3970   11.9010   26.2610 N.am  182  GLN182     -0.1977
     87  CA         7.2550   12.6270   25.0020 C.3   182  GLN182      0.1601
     88  C          7.7360   14.0840   25.0840 C.2   182  GLN182      0.2287
     89  O          7.3820   14.8170   26.0150 O.2   182  GLN182     -0.2864
     90  CB         5.8010   12.5890   24.5370 C.3   182  GLN182      0.0394
     91  CG         5.6270   12.8730   23.0590 C.3   182  GLN182      0.0908
     92  CD         4.2000   12.6980   22.6120 C.2   182  GLN182      0.2608
     93  OE1        3.2980   12.5460   23.4320 O.2   182  GLN182     -0.2717
     94  NE2        3.9820   12.7160   21.3030 N.am  182  GLN182     -0.0878
     95  N         12.5870   13.4760   23.4560 N.3   185  SER185     -0.1217
     96  CA        13.2760   12.7820   22.3730 C.3   185  SER185      0.1889
     97  C         14.3120   13.6670   21.7060 C.2   185  SER185      0.2288
     98  O         14.0860   14.8580   21.5270 O.2   185  SER185     -0.2866
     99  CB        12.2700   12.3130   21.3210 C.3   185  SER185      0.2089
    100  OG        11.3750   11.3500   21.8470 O.3   185  SER185     -0.2183
    101  N         17.9350   10.5200   23.7700 N.3   203  VAL203     -0.1231
    102  CA        16.5900   10.0900   24.1400 C.3   203  VAL203      0.1692
    103  C         15.9010    9.6000   22.8540 C.2   203  VAL203      0.2593
    104  O         15.7530   10.3550   21.8880 O.2   203  VAL203     -0.2718
    105  CB        15.7840   11.2490   24.7830 C.3   203  VAL203      0.0266
    106  CG1       14.3890   10.7800   25.1670 C.3   203  VAL203      0.0020
    107  CG2       16.5000   11.7410   26.0180 C.3   203  VAL203      0.0020
    108  N         15.5020    8.3250   22.8370 N.am  204  SER204     -0.1938
    109  CA        14.8680    7.7480   21.6520 C.3   204  SER204      0.2055
    110  C         13.3970    7.3730   21.8120 C.2   204  SER204      0.2643
    111  O         12.5280    8.0070   21.2160 O.2   204  SER204     -0.2714
    112  CB        15.6560    6.5230   21.1840 C.3   204  SER204      0.2130
    113  OG        15.4470    6.2690   19.8030 O.3   204  SER204     -0.2179
    114  N         13.1110    6.3350   22.5910 N.am  205  TRP205     -0.1959
    115  CA        11.7260    5.9220   22.7730 C.3   205  TRP205      0.1771
    116  C         11.4600    5.0760   24.0000 C.2   205  TRP205      0.2620
    117  O         12.3540    4.7750   24.7990 O.2   205  TRP205     -0.2715
    118  CB        11.2180    5.1670   21.5370 C.3   205  TRP205      0.0590
    119  CG        11.9460    3.8700   21.2370 C.ar  205  TRP205      0.0006
    120  CD1       13.0630    3.7140   20.4560 C.ar  205  TRP205      0.0946
    121  CD2       11.5800    2.5510   21.6780 C.ar  205  TRP205      0.0152
    122  NE1       13.4100    2.3870   20.3840 N.ar  205  TRP205     -0.2442
    123  CE2       12.5190    1.6480   21.1230 C.ar  205  TRP205      0.0810
    124  CE3       10.5490    2.0410   22.4870 C.ar  205  TRP205      0.0012
    125  CZ2       12.4600    0.2650   21.3480 C.ar  205  TRP205      0.0191
    126  CZ3       10.4900    0.6620   22.7140 C.ar  205  TRP205      0.0001
    127  CH2       11.4410   -0.2070   22.1440 C.ar  205  TRP205      0.0015
    128  N         10.1930    4.7090   24.1330 N.am  206  GLY206     -0.1940
    129  CA         9.7460    3.8800   25.2300 C.3   206  GLY206      0.2014
    130  C          8.3050    3.5150   24.9470 C.2   206  GLY206      0.2639
    131  O          7.6950    4.0620   24.0280 O.2   206  GLY206     -0.2714
    132  N          7.7620    2.5730   25.7060 N.am  207  GLU207     -0.1963
    133  CA         6.3700    2.1910   25.5380 C.3   207  GLU207      0.1733
    134  C          5.6460    2.9720   26.6230 C.2   207  GLU207      0.2617
    135  O          5.5840    2.5440   27.7780 O.2   207  GLU207     -0.2715
    136  CB         6.2040    0.6850   25.7390 C.3   207  GLU207      0.0429
    137  CG         6.6640   -0.1310   24.5450 C.3   207  GLU207      0.1163
    138  CD         6.8530   -1.6000   24.8850 C.2   207  GLU207      0.3649
    139  OE1        5.9160   -2.2030   25.4530 O.co2 207  GLU207     -0.2457
    140  OE2        7.9380   -2.1500   24.5920 O.co2 207  GLU207     -0.2457
    141  N          5.1170    4.1350   26.2500 N.am  208  GLY208     -0.1940
    142  CA         4.4580    4.9770   27.2280 C.3   208  GLY208      0.2014
    143  C          5.5420    5.6960   28.0180 C.2   208  GLY208      0.2639
    144  O          6.6410    5.9120   27.5040 O.2   208  GLY208     -0.2714
    145  N          5.2590    6.0490   29.2660 N.am  209  CYS209     -0.1967
    146  CA         6.2390    6.7500   30.0890 C.3   209  CYS209      0.1712
    147  C          6.2000    6.2730   31.5370 C.2   209  CYS209      0.2296
    148  O          5.1590    6.3240   32.1850 O.2   209  CYS209     -0.2864
    149  CB         5.9800    8.2730   30.0540 C.3   209  CYS209      0.0983
    150  SG         5.9200    9.0550   28.4020 S.3   209  CYS209     -0.0798
    151  N          6.1070    3.4410   32.7120 N.3   211  ARG211     -0.1245
    152  CA         5.2600    2.2660   32.9100 C.3   211  ARG211      0.1563
    153  C          6.0180    1.1650   33.6480 C.2   211  ARG211      0.2260
    154  O          7.2240    0.9940   33.4520 O.2   211  ARG211     -0.2867
    155  CB         4.7990    1.7220   31.5650 C.3   211  ARG211      0.0307
    156  CG         3.8060    2.5980   30.8600 C.3   211  ARG211      0.0489
    157  CD         3.2360    1.8910   29.6560 C.3   211  ARG211      0.2205
    158  NE         2.1690    2.6660   29.0400 N.pl3 211  ARG211     -0.0865
    159  CZ         1.6790    2.4250   27.8310 C.cat 211  ARG211      0.5346
    160  NH1        2.1620    1.4260   27.1050 N.pl3 211  ARG211      0.1354
    161  NH2        0.7120    3.1890   27.3440 N.pl3 211  ARG211      0.1354
    162  N         13.4040    3.0340   29.5420 N.3   216  GLY216     -0.1210
    163  CA        13.5930    4.0700   28.5470 C.3   216  GLY216      0.1956
    164  C         14.6320    3.5730   27.5610 C.2   216  GLY216      0.2612
    165  O         15.6480    3.0170   27.9780 O.2   216  GLY216     -0.2717
    166  N         14.3900    3.7530   26.2660 N.am  217  ILE217     -0.1965
    167  CA        15.3410    3.2990   25.2580 C.3   217  ILE217      0.1727
    168  C         16.0920    4.4660   24.6070 C.2   217  ILE217      0.2616
    169  O         15.4850    5.4190   24.1110 O.2   217  ILE217     -0.2715
    170  CB        14.6390    2.4730   24.1600 C.3   217  ILE217      0.0290
    171  CG1       13.5970    1.5370   24.7960 C.3   217  ILE217      0.0022
    172  CG2       15.6830    1.6990   23.3410 C.3   217  ILE217      0.0023
    173  CD1       14.1840    0.3580   25.5560 C.3   217  ILE217      0.0001
    174  N         17.4180    4.3620   24.5950 N.am  218  TYR218     -0.1974
    175  CA        18.2800    5.4050   24.0490 C.3   218  TYR218      0.1639
    176  C         19.1580    4.9330   22.9090 C.2   218  TYR218      0.2290
    177  O         19.5460    3.7670   22.8600 O.2   218  TYR218     -0.2864
    178  CB        19.1960    5.9480   25.1470 C.3   218  TYR218      0.0560
    179  CG        18.4620    6.4770   26.3440 C.ar  218  TYR218     -0.0198
    180  CD1       17.9260    5.6080   27.2990 C.ar  218  TYR218     -0.0009
    181  CD2       18.2800    7.8500   26.5160 C.ar  218  TYR218     -0.0009
    182  CE1       17.2220    6.0910   28.3980 C.ar  218  TYR218      0.0417
    183  CE2       17.5790    8.3450   27.6060 C.ar  218  TYR218      0.0417
    184  CZ        17.0530    7.4640   28.5420 C.ar  218  TYR218      0.1957
    185  OH        16.3590    7.9710   29.6140 O.3   218  TYR218     -0.2866
@<TRIPOS>BOND
     1    19    17   ar
     2    15    16    1
     3    15    12    1
     4    16    17    1
     5    17    18   ar
     6    11    12    1
     7    12    13    1
     8    13    20   am
     9    13    14    2
    10    20    21    1
    11    25    24    1
    12    26    24    1
    13     2     1    1
    14     2     3    1
    15     2     5    1
    16    24    21    1
    17     4     3    2
    18    21    22    1
    19    27    22   am
    20    27    28    1
    21     5     6    1
    22    22    23    2
    23    29    28    1
    24    29    30    2
    25    28    31    1
    26    66    64    1
    27     6     8   ar
    28     6     7   ar
    29    65    63    1
    30    31    32    1
    31    33    32   ar
    32    33    35   ar
    33    32    34   ar
    34     8    10   ar
    35    35    37   ar
    36    64    63    1
    37    34    36   ar
    38    63    60    1
    39     7     9   ar
    40    37    36   ar
    41    37    38    1
    42    10     9   ar
    43    60    59    1
    44    60    61    1
    45    54    56   ar
    46    54    53   ar
    47    56    58   ar
    48    59    50   am
    49    62    61    2
    50   113   112    1
    51    52    53    1
    52    52    49    1
    53    53    55   ar
    54    58    57   ar
    55   122   120   ar
    56   122   123   ar
    57    50    49    1
    58    50    51    2
    59    49    48    1
    60   120   119   ar
    61   123   125   ar
    62   123   121   ar
    63    55    57   ar
    64   112   109    1
    65   111   110    2
    66   119   118    1
    67   119   121   ar
    68    94    92   am
    69    99   100    1
    70    99    96    1
    71   125   127   ar
    72    98    97    2
    73   118   115    1
    74   109   110    1
    75   109   108    1
    76   121   124   ar
    77    97    96    1
    78   110   114   am
    79   104   103    2
    80   127   126   ar
    81    96    95    1
    82   124   126   ar
    83   114   115    1
    84    92    91    1
    85    92    93    2
    86   115   116    1
    87   108   103   am
    88   103   102    1
    89   177   176    2
    90   176   175    1
    91    91    90    1
    92   172   170    1
    93   101   102    1
    94   116   128   am
    95   116   117    2
    96   131   130    2
    97   175   174    1
    98   175   178    1
    99   169   168    2
   100   128   129    1
   101   102   105    1
   102   170   171    1
   103   170   167    1
   104    90    87    1
   105   137   138    1
   106   137   136    1
   107   140   138   ar
   108   174   168   am
   109   168   167    1
   110   105   106    1
   111   105   107    1
   112   171   173    1
   113   138   139   ar
   114   130   129    1
   115   130   132   am
   116    87    88    1
   117    87    86    1
   118    88    89    2
   119   178   179    1
   120   167   166    1
   121   133   132    1
   122   133   136    1
   123   133   134    1
   124   141   134   am
   125   141   142    1
   126    86    82   am
   127   166   164   am
   128   179   181   ar
   129   179   180   ar
   130    83    82    2
   131   181   183   ar
   132   134   135    2
   133    82    81    1
   134   160   159    1
   135   142   143    1
   136   180   182   ar
   137   161   159    1
   138   144   143    2
   139   164   165    2
   140   164   163    1
   141   183   184   ar
   142   159   158    2
   143   143   145   am
   144    81    80    1
   145    81    84    1
   146    42    41    2
   147   182   184   ar
   148   150    85    1
   149   150   149    1
   150   184   185    1
   151   163   162    1
   152    47    45   ar
   153    80    77   am
   154    85    84    1
   155    79    76    1
   156   158   157    1
   157    44    45    1
   158    44    43    1
   159   145   146    1
   160    45    46   ar
   161    41    40    1
   162    77    78    2
   163    77    76    1
   164   157   156    1
   165   149   146    1
   166   146   147    1
   167    76    75    1
   168    40    43    1
   169    40    39    1
   170    74    72   ar
   171   156   155    1
   172    73    72   ar
   173    75    69   am
   174    72    71    1
   175   147   148    2
   176   155   152    1
   177    69    70    2
   178    69    68    1
   179   151   152    1
   180    71    68    1
   181   152   153    1
   182    68    67    1
   183   154   153    2
