@<TRIPOS>MOLECULE
tmp/1ng1A00.pdb
 134 125 0 0 0
SMALL
GASTEIGER

@<TRIPOS>ATOM
      1  N         10.4780   88.5320    9.7850 N.3   107  GLN107     -0.1231
      2  CA        11.6340   88.9200   10.5740 C.3   107  GLN107      0.1698
      3  C         12.2100   87.6680   11.2170 C.2   107  GLN107      0.2593
      4  O         11.4670   86.7820   11.6280 O.2   107  GLN107     -0.2718
      5  CB        11.2210   89.9100   11.6610 C.3   107  GLN107      0.0381
      6  CG        12.3750   90.6790   12.2540 C.3   107  GLN107      0.0905
      7  CD        11.9250   91.6470   13.3210 C.2   107  GLN107      0.2608
      8  OE1       12.0040   91.3520   14.5120 O.2   107  GLN107     -0.2717
      9  NE2       11.4450   92.8140   12.9000 N.am  107  GLN107     -0.0878
     10  N         13.5340   87.5920   11.2890 N.am  108  GLY108     -0.1942
     11  CA        14.1720   86.4410   11.8980 C.3   108  GLY108      0.2014
     12  C         14.3160   85.2290   10.9990 C.2   108  GLY108      0.2640
     13  O         14.8900   84.2230   11.4140 O.2   108  GLY108     -0.2714
     14  N         13.8050   85.3100    9.7730 N.am  109  SER109     -0.1935
     15  CA        13.9040   84.1840    8.8500 C.3   109  SER109      0.2055
     16  C         15.3190   84.0400    8.2870 C.2   109  SER109      0.2644
     17  O         15.6960   82.9690    7.8140 O.2   109  SER109     -0.2714
     18  CB        12.8950   84.3400    7.7110 C.3   109  SER109      0.2130
     19  OG        13.2640   85.3870    6.8360 O.3   109  SER109     -0.2179
     20  N         16.0970   85.1200    8.3440 N.am  110  GLY110     -0.1939
     21  CA        17.4680   85.0780    7.8550 C.3   110  GLY110      0.2014
     22  C         17.7560   85.9140    6.6220 C.2   110  GLY110      0.2639
     23  O         18.7540   85.6950    5.9370 O.2   110  GLY110     -0.2714
     24  N         16.8920   86.8850    6.3450 N.am  111  LYS111     -0.1963
     25  CA        17.0480   87.7450    5.1760 C.3   111  LYS111      0.1728
     26  C         18.3800   88.4870    5.1000 C.2   111  LYS111      0.2617
     27  O         19.0940   88.3850    4.0980 O.2   111  LYS111     -0.2715
     28  CB        15.9010   88.7590    5.1150 C.3   111  LYS111      0.0311
     29  CG        14.5160   88.1380    5.0490 C.3   111  LYS111      0.0038
     30  CD        13.4780   89.1350    4.5350 C.3   111  LYS111      0.0206
     31  CE        13.2930   90.3200    5.4800 C.3   111  LYS111      0.1093
     32  NZ        13.0970   89.9060    6.8960 N.3   111  LYS111     -0.1314
     33  N         18.7180   89.2320    6.1500 N.am  112  THR112     -0.1937
     34  CA        19.9630   90.0010    6.1620 C.3   112  THR112      0.2028
     35  C         21.2210   89.1390    6.0640 C.2   112  THR112      0.2643
     36  O         22.1530   89.4800    5.3330 O.2   112  THR112     -0.2714
     37  CB        20.0610   90.9040    7.4180 C.3   112  THR112      0.1808
     38  OG1       18.9730   91.8400    7.4180 O.3   112  THR112     -0.2208
     39  CG2       21.3740   91.6800    7.4190 C.3   112  THR112      0.0379
     40  N         21.2560   88.0270    6.7930 N.am  113  THR113     -0.1936
     41  CA        22.4140   87.1370    6.7500 C.3   113  THR113      0.2028
     42  C         22.5410   86.5070    5.3700 C.2   113  THR113      0.2642
     43  O         23.6390   86.3730    4.8270 O.2   113  THR113     -0.2714
     44  CB        22.2860   86.0050    7.7710 C.3   113  THR113      0.1808
     45  OG1       21.9180   86.5480    9.0420 O.3   113  THR113     -0.2208
     46  CG2       23.6050   85.2520    7.8940 C.3   113  THR113      0.0379
     47  N         21.4040   86.1190    4.8040 N.am  114  THR114     -0.1950
     48  CA        21.3890   85.4920    3.4910 C.3   114  THR114      0.1897
     49  C         21.8370   86.4560    2.4010 C.2   114  THR114      0.2313
     50  O         22.5160   86.0590    1.4580 O.2   114  THR114     -0.2863
     51  CB        19.9870   84.9560    3.1550 C.3   114  THR114      0.1794
     52  OG1       19.6270   83.9450    4.1070 O.3   114  THR114     -0.2208
     53  CG2       19.9660   84.3530    1.7580 C.3   114  THR114      0.0378
     54  N         25.4980   86.5020    2.5400 N.3   117  LYS117     -0.1245
     55  CA        25.9950   85.1970    2.1260 C.3   117  LYS117      0.1561
     56  C         26.0150   85.1160    0.6070 C.2   117  LYS117      0.2260
     57  O         26.9790   84.6350    0.0110 O.2   117  LYS117     -0.2867
     58  CB        25.0980   84.0940    2.6840 C.3   117  LYS117      0.0271
     59  CG        25.3760   83.7380    4.1310 C.3   117  LYS117      0.0035
     60  CD        24.3140   82.7820    4.6500 C.3   117  LYS117      0.0206
     61  CE        24.6890   82.1780    5.9930 C.3   117  LYS117      0.1093
     62  NZ        23.7090   81.1280    6.3820 N.3   117  LYS117     -0.1314
     63  N         22.3340   96.7900   10.5050 N.3   144  GLN144     -0.1245
     64  CA        22.7120   95.3840   10.5770 C.3   144  GLN144      0.1566
     65  C         23.4020   94.9490    9.2900 C.2   144  GLN144      0.2260
     66  O         24.4620   94.3230    9.3220 O.2   144  GLN144     -0.2867
     67  CB        21.4730   94.5160   10.8230 C.3   144  GLN144      0.0367
     68  CG        20.6960   94.8890   12.0790 C.3   144  GLN144      0.0905
     69  CD        19.5690   93.9170   12.3930 C.2   144  GLN144      0.2608
     70  OE1       19.5920   93.2340   13.4180 O.2   144  GLN144     -0.2717
     71  NE2       18.5740   93.8560   11.5150 N.am  144  GLN144     -0.0878
     72  N         17.6030   93.8030    0.5580 N.3   187  ASP187     -0.1239
     73  CA        17.1320   93.2640    1.8270 C.3   187  ASP187      0.1674
     74  C         15.8590   94.0410    2.1810 C.2   187  ASP187      0.2266
     75  O         15.9240   95.1690    2.6730 O.2   187  ASP187     -0.2867
     76  CB        18.2120   93.4760    2.8960 C.3   187  ASP187      0.1410
     77  CG        17.8760   92.8170    4.2160 C.2   187  ASP187      0.3668
     78  OD1       16.8700   92.0800    4.2790 O.co2 187  ASP187     -0.2456
     79  OD2       18.6250   93.0400    5.1930 O.co2 187  ASP187     -0.2456
     80  N         13.9400   75.7290   10.7890 N.3   221  MET221     -0.1245
     81  CA        13.6840   75.3310   12.1670 C.3   221  MET221      0.1570
     82  C         12.2310   75.4680   12.6050 C.2   221  MET221      0.2261
     83  O         11.7990   74.7930   13.5390 O.2   221  MET221     -0.2867
     84  CB        14.5690   76.1370   13.1120 C.3   221  MET221      0.0387
     85  CG        16.0160   76.1710   12.6880 C.3   221  MET221      0.0595
     86  SD        17.0930   75.7040   14.0290 S.3   221  MET221     -0.1393
     87  CE        17.8470   77.2610   14.3980 C.3   221  MET221      0.0692
     88  N         16.9630   78.5410    5.5000 N.3   245  THR245     -0.1203
     89  CA        18.0460   78.8290    6.4300 C.3   245  THR245      0.1994
     90  C         18.0130   77.9790    7.6900 C.2   245  THR245      0.2617
     91  O         17.0390   77.2730    7.9600 O.2   245  THR245     -0.2717
     92  CB        18.0220   80.3010    6.8620 C.3   245  THR245      0.1784
     93  OG1       16.8180   80.5530    7.5960 O.3   245  THR245     -0.2211
     94  CG2       18.0780   81.2210    5.6460 C.3   245  THR245      0.0376
     95  N         19.0970   78.0680    8.4550 N.am  246  LYS246     -0.1979
     96  CA        19.2380   77.3490    9.7140 C.3   246  LYS246      0.1596
     97  C         19.0630   75.8470    9.5580 C.2   246  LYS246      0.2287
     98  O         18.6100   75.1690   10.4790 O.2   246  LYS246     -0.2864
     99  CB        18.2360   77.9000   10.7330 C.3   246  LYS246      0.0298
    100  CG        17.9270   79.3790   10.5300 C.3   246  LYS246      0.0038
    101  CD        17.5390   80.0760   11.8180 C.3   246  LYS246      0.0206
    102  CE        17.3330   81.5660   11.5760 C.3   246  LYS246      0.1093
    103  NZ        16.2660   82.1410   12.4450 N.3   246  LYS246     -0.1314
    104  N         21.3210   73.8840    9.5140 N.3   248  ASP248     -0.1225
    105  CA        22.3350   73.2800   10.3720 C.3   248  ASP248      0.1805
    106  C         21.7680   73.0450   11.7690 C.2   248  ASP248      0.2598
    107  O         22.3360   72.2970   12.5630 O.2   248  ASP248     -0.2718
    108  CB        23.5890   74.1680   10.4440 C.3   248  ASP248      0.1424
    109  CG        23.2660   75.6210   10.7260 C.2   248  ASP248      0.3668
    110  OD1       22.4770   76.2160    9.9630 O.co2 248  ASP248     -0.2456
    111  OD2       23.8040   76.1700   11.7100 O.co2 248  ASP248     -0.2456
    112  N         20.6400   73.6840   12.0610 N.am  249  GLY249     -0.1957
    113  CA        20.0080   73.5130   13.3560 C.3   249  GLY249      0.1869
    114  C         18.7270   72.7040   13.2450 C.2   249  GLY249      0.2309
    115  O         17.9900   72.5600   14.2170 O.2   249  GLY249     -0.2863
    116  N         20.8940   77.6280    3.8960 N.3   271  GLY271     -0.1225
    117  CA        21.7400   78.2840    4.8750 C.3   271  GLY271      0.1811
    118  C         22.2050   77.1990    5.8280 C.2   271  GLY271      0.2280
    119  O         21.3790   76.5310    6.4540 O.2   271  GLY271     -0.2866
    120  N         24.8660   77.7600    8.2390 N.3   273  SER273     -0.1202
    121  CA        25.6040   78.3400    9.3610 C.3   273  SER273      0.2020
    122  C         25.3250   79.8330    9.5020 C.2   273  SER273      0.2618
    123  O         24.8270   80.4730    8.5750 O.2   273  SER273     -0.2717
    124  CB        27.1090   78.1220    9.1840 C.3   273  SER273      0.2103
    125  OG        27.7340   79.2730    8.6440 O.3   273  SER273     -0.2182
    126  N         25.6570   80.3820   10.6650 N.am  274  GLU274     -0.1979
    127  CA        25.4450   81.7980   10.9370 C.3   274  GLU274      0.1602
    128  C         26.5320   82.6540   10.2920 C.2   274  GLU274      0.2287
    129  O         26.3820   83.8690   10.1670 O.2   274  GLU274     -0.2864
    130  CB        25.4240   82.0430   12.4470 C.3   274  GLU274      0.0415
    131  CG        26.5880   81.4090   13.1940 C.3   274  GLU274      0.1163
    132  CD        26.6890   81.8910   14.6320 C.2   274  GLU274      0.3649
    133  OE1       25.8730   82.7500   15.0340 O.co2 274  GLU274     -0.2457
    134  OE2       27.5840   81.4100   15.3620 O.co2 274  GLU274     -0.2457
@<TRIPOS>BOND
     1    57    56    2
     2    72    73    1
     3    56    55    1
     4    50    49    2
     5    53    51    1
     6    73    74    1
     7    73    76    1
     8    55    54    1
     9    55    58    1
    10    74    75    2
    11    49    48    1
    12    58    59    1
    13    76    77    1
    14    51    48    1
    15    51    52    1
    16    48    47    1
    17   116   117    1
    18    27    26    2
    19    59    60    1
    20    77    78   ar
    21    77    79   ar
    22    30    29    1
    23    30    31    1
    24    60    61    1
    25    47    42   am
    26    43    42    2
    27   117   118    1
    28    29    28    1
    29    26    25    1
    30    26    33   am
    31    28    25    1
    32    25    24    1
    33    36    35    2
    34    42    41    1
    35    31    32    1
    36    88    89    1
    37    94    92    1
    38   118   119    2
    39    23    22    2
    40    61    62    1
    41    35    34    1
    42    35    40   am
    43    33    34    1
    44    34    37    1
    45    24    22   am
    46    89    92    1
    47    89    90    1
    48    22    21    1
    49    41    40    1
    50    41    44    1
    51    19    18    1
    52    92    93    1
    53    38    37    1
    54    37    39    1
    55    90    91    2
    56    90    95   am
    57    18    15    1
    58    44    46    1
    59    44    45    1
    60    17    16    2
    61    21    20    1
    62   120   121    1
    63    16    20   am
    64    16    15    1
    65    95    96    1
    66   123   122    2
    67   125   124    1
    68    15    14    1
    69   124   121    1
    70    65    66    2
    71    65    64    1
    72   121   122    1
    73   122   126   am
    74   104   105    1
    75    97    96    1
    76    97    98    2
    77    96    99    1
    78    14    12   am
    79     1     2    1
    80   110   109   ar
    81   129   128    2
    82   128   127    1
    83   105   108    1
    84   105   106    1
    85   108   109    1
    86    63    64    1
    87   100    99    1
    88   100   101    1
    89     2     3    1
    90     2     5    1
    91    64    67    1
    92   126   127    1
    93   109   111   ar
    94    80    81    1
    95    67    68    1
    96   127   130    1
    97    12    13    2
    98    12    11    1
    99     3    10   am
   100     3     4    2
   101    10    11    1
   102    71    69   am
   103   102   101    1
   104   102   103    1
   105     5     6    1
   106   106   112   am
   107   106   107    2
   108   112   113    1
   109    68    69    1
   110    81    82    1
   111    81    84    1
   112     6     7    1
   113    69    70    2
   114   130   131    1
   115    82    83    2
   116    85    84    1
   117    85    86    1
   118     9     7   am
   119   131   132    1
   120   114   113    1
   121   114   115    2
   122     7     8    2
   123    86    87    1
   124   132   133   ar
   125   132   134   ar
