@<TRIPOS>MOLECULE
tmp/1ng3B01.pdb
 90 83 0 0 0
SMALL
GASTEIGER

@<TRIPOS>ATOM
      1  N         34.9380   78.1830   79.3540 N.3    47  ALA47      -0.1245
      2  CA        34.3820   77.6930   78.1090 C.3    47  ALA47       0.1562
      3  C         35.3830   77.9280   76.9780 C.2    47  ALA47       0.2260
      4  O         35.5600   77.0700   76.1140 O.2    47  ALA47      -0.2867
      5  CB        33.0620   78.4060   77.8190 C.3    47  ALA47       0.0290
      6  N         35.4530   81.0430   75.1210 N.3    49  MET49      -0.1245
      7  CA        34.8940   81.9690   74.1490 C.3    49  MET49       0.1570
      8  C         35.7190   83.2500   74.0830 C.2    49  MET49       0.2261
      9  O         36.0810   83.8120   75.1140 O.2    49  MET49      -0.2867
     10  CB        33.4610   82.3340   74.5330 C.3    49  MET49       0.0387
     11  CG        32.4680   81.1940   74.4250 C.3    49  MET49       0.0595
     12  SD        30.8190   81.6470   75.0020 S.3    49  MET49      -0.1393
     13  CE        31.0680   81.6930   76.7770 C.3    49  MET49       0.0692
     14  N         34.8340   86.1210   73.6160 N.3    51  GLY51      -0.1225
     15  CA        33.6870   87.0060   73.6080 C.3    51  GLY51       0.1811
     16  C         33.9100   88.4810   73.8590 C.2    51  GLY51       0.2280
     17  O         33.5180   88.9990   74.9040 O.2    51  GLY51      -0.2866
     18  N         30.0620   89.6680   72.8540 N.3    54  ALA54      -0.1231
     19  CA        29.0480   89.0930   73.7320 C.3    54  ALA54       0.1694
     20  C         29.0890   89.6200   75.1690 C.2    54  ALA54       0.2591
     21  O         28.0520   89.6880   75.8410 O.2    54  ALA54      -0.2718
     22  CB        29.1680   87.5690   73.7240 C.3    54  ALA54       0.0304
     23  N         30.2770   89.9940   75.6370 N.am   55  GLU55      -0.1979
     24  CA        30.4290   90.5030   76.9990 C.3    55  GLU55       0.1602
     25  C         30.5310   92.0220   77.0120 C.2    55  GLU55       0.2287
     26  O         30.9180   92.6170   78.0140 O.2    55  GLU55      -0.2864
     27  CB        31.6800   89.9050   77.6470 C.3    55  GLU55       0.0415
     28  CG        31.7240   88.3850   77.6630 C.3    55  GLU55       0.1163
     29  CD        30.7510   87.7730   78.6550 C.2    55  GLU55       0.3649
     30  OE1       30.8780   88.0520   79.8670 O.co2  55  GLU55      -0.2457
     31  OE2       29.8620   87.0090   78.2270 O.co2  55  GLU55      -0.2457
     32  N         24.2550   81.6340   72.5070 N.3   241  TYR241     -0.1241
     33  CA        24.5060   82.4290   73.6950 C.3   241  TYR241      0.1605
     34  C         23.2860   83.2600   74.1130 C.2   241  TYR241      0.2264
     35  O         22.5630   83.7910   73.2760 O.2   241  TYR241     -0.2867
     36  CB        25.7060   83.3400   73.4130 C.3   241  TYR241      0.0534
     37  CG        26.1940   84.1400   74.5940 C.ar  241  TYR241     -0.0201
     38  CD1       27.3140   83.7420   75.3160 C.ar  241  TYR241     -0.0009
     39  CD2       25.5350   85.3050   74.9850 C.ar  241  TYR241     -0.0009
     40  CE1       27.7700   84.4890   76.3930 C.ar  241  TYR241      0.0417
     41  CE2       25.9750   86.0540   76.0600 C.ar  241  TYR241      0.0417
     42  CZ        27.0910   85.6450   76.7560 C.ar  241  TYR241      0.1957
     43  OH        27.5240   86.4110   77.8100 O.3   241  TYR241     -0.2866
     44  N         25.5560   79.8650   77.8140 N.3   246  TYR246     -0.1241
     45  CA        25.9490   79.4330   76.4850 C.3   246  TYR246      0.1605
     46  C         25.9700   77.9300   76.2680 C.2   246  TYR246      0.2264
     47  O         25.8920   77.1340   77.2010 O.2   246  TYR246     -0.2867
     48  CB        27.3390   79.9920   76.2140 C.3   246  TYR246      0.0534
     49  CG        28.2260   79.7850   77.4140 C.ar  246  TYR246     -0.0201
     50  CD1       28.8960   78.5740   77.6160 C.ar  246  TYR246     -0.0009
     51  CD2       28.3040   80.7550   78.4150 C.ar  246  TYR246     -0.0009
     52  CE1       29.6110   78.3410   78.7850 C.ar  246  TYR246      0.0417
     53  CE2       29.0130   80.5290   79.5860 C.ar  246  TYR246      0.0417
     54  CZ        29.6610   79.3270   79.7650 C.ar  246  TYR246      0.1957
     55  OH        30.3560   79.1110   80.9310 O.3   246  TYR246     -0.2866
     56  N         27.0810   78.1750   82.9660 N.3   259  ALA259     -0.1245
     57  CA        27.1440   79.2690   83.8630 C.3   259  ALA259      0.1562
     58  C         26.1170   79.8970   84.7480 C.2   259  ALA259      0.2260
     59  O         25.3380   80.7430   84.3560 O.2   259  ALA259     -0.2867
     60  CB        27.9690   80.3090   83.2710 C.3   259  ALA259      0.0290
     61  N         35.5420   82.7640   89.0870 N.3   302  ARG302     -0.1245
     62  CA        35.8930   83.9060   88.2480 C.3   302  ARG302      0.1563
     63  C         36.4820   84.9460   89.1870 C.2   302  ARG302      0.2260
     64  O         35.9540   85.1630   90.2780 O.2   302  ARG302     -0.2867
     65  CB        34.6530   84.4880   87.5610 C.3   302  ARG302      0.0307
     66  CG        33.8160   83.4810   86.7860 C.3   302  ARG302      0.0489
     67  CD        32.7210   84.1810   85.9960 C.3   302  ARG302      0.2205
     68  NE        31.7570   83.2700   85.3780 N.pl3 302  ARG302     -0.0865
     69  CZ        30.7630   82.6680   86.0250 C.cat 302  ARG302      0.5346
     70  NH1       30.5870   82.8640   87.3290 N.pl3 302  ARG302      0.1354
     71  NH2       29.9190   81.8910   85.3550 N.pl3 302  ARG302      0.1354
     72  N         35.1050   87.5610   83.7050 N.3   329  ARG329     -0.1231
     73  CA        34.5430   86.6880   82.6760 C.3   329  ARG329      0.1694
     74  C         35.3520   86.5960   81.3880 C.2   329  ARG329      0.2592
     75  O         35.0020   85.8200   80.5050 O.2   329  ARG329     -0.2718
     76  CB        33.1320   87.1640   82.2950 C.3   329  ARG329      0.0321
     77  CG        32.0580   86.8990   83.3240 C.3   329  ARG329      0.0489
     78  CD        30.6870   87.4090   82.8640 C.3   329  ARG329      0.2205
     79  NE        29.6660   86.3770   83.0280 N.pl3 329  ARG329     -0.0865
     80  CZ        29.1790   85.6360   82.0360 C.cat 329  ARG329      0.5346
     81  NH1       29.6010   85.8120   80.7900 N.pl3 329  ARG329      0.1354
     82  NH2       28.2970   84.6840   82.2970 N.pl3 329  ARG329      0.1354
     83  N         36.4220   87.3710   81.2560 N.am  330  ASN330     -0.1974
     84  CA        37.1670   87.3520   80.0010 C.3   330  ASN330      0.1688
     85  C         38.6440   87.0110   80.0310 C.2   330  ASN330      0.2292
     86  O         39.3750   87.3570   79.1030 O.2   330  ASN330     -0.2864
     87  CB        36.9800   88.6930   79.2900 C.3   330  ASN330      0.1181
     88  CG        35.5100   89.0110   79.0210 C.2   330  ASN330      0.2629
     89  OD1       34.8140   89.5930   79.8630 O.2   330  ASN330     -0.2716
     90  ND2       35.0270   88.6070   77.8470 N.am  330  ASN330     -0.0877
@<TRIPOS>BOND
     1    32    33    1
     2    18    19    1
     3    35    34    2
     4    36    33    1
     5    36    37    1
     6    15    14    1
     7    15    16    1
     8    33    34    1
     9    22    19    1
    10    19    20    1
    11    16    17    2
    12     8     7    1
    13     8     9    2
    14     7    10    1
    15     7     6    1
    16    11    10    1
    17    11    12    1
    18    37    39   ar
    19    37    38   ar
    20    39    41   ar
    21    12    13    1
    22    20    23   am
    23    20    21    2
    24    38    40   ar
    25    23    24    1
    26    41    42   ar
    27     4     3    2
    28    48    45    1
    29    48    49    1
    30    46    45    1
    31    46    47    2
    32    40    42   ar
    33    45    44    1
    34    42    43    1
    35     3     2    1
    36    24    25    1
    37    24    27    1
    38    25    26    2
    39    49    50   ar
    40    49    51   ar
    41    50    52   ar
    42    27    28    1
    43    28    29    1
    44     5     2    1
    45    90    88   am
    46     2     1    1
    47    31    29   ar
    48    51    53   ar
    49    29    30   ar
    50    52    54   ar
    51    88    87    1
    52    88    89    2
    53    86    85    2
    54    87    84    1
    55    53    54   ar
    56    54    55    1
    57    84    85    1
    58    84    83    1
    59    75    74    2
    60    81    80    1
    61    83    74   am
    62    74    73    1
    63    80    82    1
    64    80    79    2
    65    76    73    1
    66    76    77    1
    67    73    72    1
    68    78    79    1
    69    78    77    1
    70    56    57    1
    71    60    57    1
    72    57    58    1
    73    59    58    2
    74    71    69    1
    75    68    67    1
    76    68    69    2
    77    67    66    1
    78    69    70    1
    79    66    65    1
    80    65    62    1
    81    62    61    1
    82    62    63    1
    83    63    64    2
