@<TRIPOS>MOLECULE
tmp/1ng9C00.pdb
 162 156 0 0 0
SMALL
GASTEIGER

@<TRIPOS>ATOM
      1  N         -2.1050   40.7100   20.8560 N.3   588  VAL588     -0.1245
      2  CA        -2.0060   42.1420   20.5680 C.3   588  VAL588      0.1561
      3  C         -2.9780   42.9460   21.4320 C.2   588  VAL588      0.2260
      4  O         -2.6950   44.0870   21.7910 O.2   588  VAL588     -0.2867
      5  CB        -2.2450   42.4540   19.0620 C.3   588  VAL588      0.0252
      6  CG1       -2.3270   43.9580   18.8130 C.3   588  VAL588      0.0019
      7  CG2       -1.1380   41.8500   18.1960 C.3   588  VAL588      0.0019
      8  N         -1.3310   45.9840   23.8250 N.3   592  LEU592     -0.1245
      9  CA        -1.6590   47.2940   23.2620 C.3   592  LEU592      0.1561
     10  C         -2.2070   48.2050   24.3490 C.2   592  LEU592      0.2260
     11  O         -3.1570   47.8540   25.0470 O.2   592  LEU592     -0.2867
     12  CB        -2.6930   47.1470   22.1300 C.3   592  LEU592      0.0270
     13  CG        -2.6610   48.0760   20.9110 C.3   592  LEU592      0.0019
     14  CD1       -1.2780   48.1210   20.2590 C.3   592  LEU592      0.0001
     15  CD2       -3.7070   47.5980   19.8950 C.3   592  LEU592      0.0001
     16  N         -4.3240   50.6500   24.6270 N.3   594  GLU594     -0.1231
     17  CA        -5.4680   51.2240   23.8910 C.3   594  GLU594      0.1684
     18  C         -6.3280   50.0860   23.3150 C.2   594  GLU594      0.2434
     19  O         -5.8560   48.9560   23.1770 O.2   594  GLU594     -0.2733
     20  CB        -5.0630   52.2280   22.7950 C.3   594  GLU594      0.0402
     21  CG        -4.5830   51.6630   21.4690 C.3   594  GLU594      0.1161
     22  CD        -4.0250   52.7630   20.5740 C.2   594  GLU594      0.3649
     23  OE1       -4.6720   53.8330   20.4480 O.co2 594  GLU594     -0.2457
     24  OE2       -2.9260   52.5760   20.0100 O.co2 594  GLU594     -0.2457
     25  N         -7.5810   50.3790   22.9650 N.am  595  PRO595     -0.2718
     26  CA        -8.5710   49.3120   22.7660 C.3   595  PRO595      0.1535
     27  C         -8.4200   48.6280   21.4250 C.2   595  PRO595      0.2599
     28  O         -8.3310   49.3140   20.4110 O.2   595  PRO595     -0.2715
     29  CB        -9.9110   50.0540   22.8370 C.3   595  PRO595      0.0310
     30  CG        -9.6010   51.5090   22.4450 C.3   595  PRO595      0.0237
     31  CD        -8.1350   51.7190   22.6730 C.3   595  PRO595      0.0939
     32  N         -8.3940   47.2950   21.4300 N.am  596  PHE596     -0.1960
     33  CA        -8.3140   46.5170   20.1980 C.3   596  PHE596      0.1771
     34  C         -9.6510   46.5690   19.4720 C.2   596  PHE596      0.2619
     35  O        -10.6850   46.2680   20.0530 O.2   596  PHE596     -0.2715
     36  CB        -7.9230   45.0610   20.4880 C.3   596  PHE596      0.0574
     37  CG        -7.5590   44.2770   19.2500 C.ar  596  PHE596     -0.0200
     38  CD1       -6.2320   44.1770   18.8450 C.ar  596  PHE596     -0.0042
     39  CD2       -8.5430   43.6710   18.4750 C.ar  596  PHE596     -0.0042
     40  CE1       -5.8950   43.4740   17.6980 C.ar  596  PHE596     -0.0003
     41  CE2       -8.2070   42.9900   17.3290 C.ar  596  PHE596     -0.0003
     42  CZ        -6.8830   42.8840   16.9410 C.ar  596  PHE596     -0.0000
     43  N         -9.6250   46.9560   18.2040 N.am  597  ILE597     -0.1977
     44  CA       -10.8370   47.0480   17.3940 C.3   597  ILE597      0.1596
     45  C        -11.2440   45.6460   16.9370 C.2   597  ILE597      0.2287
     46  O        -10.5520   45.0230   16.1290 O.2   597  ILE597     -0.2864
     47  CB       -10.5930   47.9630   16.1670 C.3   597  ILE597      0.0276
     48  CG1      -10.0930   49.3520   16.6120 C.3   597  ILE597      0.0022
     49  CG2      -11.8540   48.0600   15.3070 C.3   597  ILE597      0.0022
     50  CD1      -11.0140   50.1110   17.5530 C.3   597  ILE597      0.0001
     51  N        -13.2350   42.5300   15.0780 N.3   599  ASN599     -0.1240
     52  CA       -13.4390   42.3640   13.6380 C.3   599  ASN599      0.1653
     53  C        -14.0690   41.0260   13.2230 C.2   599  ASN599      0.2266
     54  O        -13.7140   39.9640   13.7450 O.2   599  ASN599     -0.2867
     55  CB       -12.1010   42.5200   12.9160 C.3   599  ASN599      0.1155
     56  CG       -11.8140   43.9470   12.5420 C.2   599  ASN599      0.2627
     57  OD1      -12.7070   44.6650   12.1270 O.2   599  ASN599     -0.2716
     58  ND2      -10.5690   44.3720   12.7010 N.am  599  ASN599     -0.0877
     59  N         -3.8380   50.2390    3.6980 N.3   615  PRO615     -0.2102
     60  CA        -2.5070   50.8310    3.7740 C.3   615  PRO615      0.1504
     61  C         -1.5960   49.9970    4.6750 C.2   615  PRO615      0.2576
     62  O         -2.0650   49.1650    5.4320 O.2   615  PRO615     -0.2718
     63  CB        -2.7630   52.2160    4.3670 C.3   615  PRO615      0.0282
     64  CG        -4.0340   52.0850    5.1160 C.3   615  PRO615      0.0208
     65  CD        -4.8520   51.0400    4.3980 C.3   615  PRO615      0.0893
     66  N         -0.2950   50.2250    4.5310 N.am  616  ASN616     -0.1961
     67  CA         0.7150   49.7600    5.4670 C.3   616  ASN616      0.1819
     68  C          0.3620   50.2690    6.8660 C.2   616  ASN616      0.2621
     69  O          0.0680   51.4640    7.0520 O.2   616  ASN616     -0.2715
     70  CB         2.1050   50.2820    5.0230 C.3   616  ASN616      0.1195
     71  CG         3.2510   49.4090    5.5120 C.2   616  ASN616      0.2630
     72  OD1        3.4550   48.2990    5.0250 O.2   616  ASN616     -0.2716
     73  ND2        4.0130   49.9180    6.4730 N.am  616  ASN616     -0.0877
     74  N          0.4180   49.3590    7.8350 N.am  617  MET617     -0.1977
     75  CA         0.0170   49.5910    9.2230 C.3   617  MET617      0.1605
     76  C         -1.5060   49.6960    9.3780 C.2   617  MET617      0.2287
     77  O         -2.0040   50.1260   10.4200 O.2   617  MET617     -0.2864
     78  CB         0.7200   50.8280    9.8180 C.3   617  MET617      0.0413
     79  CG         2.2130   50.9070    9.5310 C.3   617  MET617      0.0598
     80  SD         2.9340   52.4590   10.0980 S.3   617  MET617     -0.1393
     81  CE         2.3720   53.6780    8.8200 C.3   617  MET617      0.0692
     82  N         -3.5510   47.1090    9.3620 N.3   619  GLY619     -0.1210
     83  CA        -3.9900   46.0160   10.2110 C.3   619  GLY619      0.1956
     84  C         -4.2620   44.7210    9.4810 C.2   619  GLY619      0.2612
     85  O         -4.9880   43.8800    9.9930 O.2   619  GLY619     -0.2717
     86  N         -3.6760   44.5530    8.2990 N.am  620  LYS620     -0.1965
     87  CA        -3.9560   43.3960    7.4430 C.3   620  LYS620      0.1728
     88  C         -3.3230   42.1290    7.9910 C.2   620  LYS620      0.2617
     89  O         -3.9750   41.0910    8.0600 O.2   620  LYS620     -0.2715
     90  CB        -3.4460   43.6200    6.0100 C.3   620  LYS620      0.0311
     91  CG        -3.9100   44.9140    5.3410 C.3   620  LYS620      0.0038
     92  CD        -3.4260   45.0110    3.8920 C.3   620  LYS620      0.0206
     93  CE        -1.9370   45.3030    3.7740 C.3   620  LYS620      0.1093
     94  NZ        -1.5430   46.6450    4.3120 N.3   620  LYS620     -0.1314
     95  N         -2.0460   42.2060    8.3570 N.am  621  SER621     -0.1936
     96  CA        -1.3220   41.0200    8.8300 C.3   621  SER621      0.2055
     97  C         -1.8940   40.5230   10.1540 C.2   621  SER621      0.2643
     98  O         -2.0410   39.3120   10.3730 O.2   621  SER621     -0.2714
     99  CB         0.1750   41.2950    8.9620 C.3   621  SER621      0.2130
    100  OG         0.8210   41.0340    7.7310 O.3   621  SER621     -0.2179
    101  N         -2.2250   41.4770   11.0180 N.am  622  THR622     -0.1950
    102  CA        -2.8420   41.1950   12.3070 C.3   622  THR622      0.1897
    103  C         -4.1700   40.4590   12.1580 C.2   622  THR622      0.2313
    104  O         -4.4270   39.5150   12.8960 O.2   622  THR622     -0.2863
    105  CB        -3.0430   42.5070   13.0600 C.3   622  THR622      0.1794
    106  OG1       -1.7640   43.0820   13.3480 O.3   622  THR622     -0.2208
    107  CG2       -3.6770   42.2870   14.4280 C.3   622  THR622      0.0378
    108  N         -3.3380   36.6390   11.1810 N.3   625  ARG625     -0.1231
    109  CA        -2.8460   35.9630   12.3690 C.3   625  ARG625      0.1694
    110  C         -3.9550   35.6120   13.3680 C.2   625  ARG625      0.2591
    111  O         -4.0530   34.4650   13.8130 O.2   625  ARG625     -0.2718
    112  CB        -1.8040   36.8290   13.0660 C.3   625  ARG625      0.0321
    113  CG        -0.4680   36.8960   12.3530 C.3   625  ARG625      0.0489
    114  CD         0.5820   37.5830   13.2000 C.3   625  ARG625      0.2205
    115  NE         1.8110   37.9330   12.4790 N.pl3 625  ARG625     -0.0865
    116  CZ         2.2310   39.1770   12.2180 C.cat 625  ARG625      0.5346
    117  NH1        1.5230   40.2520   12.5860 N.pl3 625  ARG625      0.1354
    118  NH2        3.3750   39.3500   11.5640 N.pl3 625  ARG625      0.1354
    119  N         -4.7880   36.5860   13.7160 N.am  626  GLN626     -0.1979
    120  CA        -5.8120   36.3710   14.7320 C.3   626  GLN626      0.1601
    121  C         -6.8510   35.3530   14.2930 C.2   626  GLN626      0.2287
    122  O         -7.4900   34.7380   15.1330 O.2   626  GLN626     -0.2864
    123  CB        -6.4840   37.6870   15.1330 C.3   626  GLN626      0.0394
    124  CG        -7.5140   38.2300   14.1700 C.3   626  GLN626      0.0908
    125  CD        -7.9270   39.6360   14.5380 C.2   626  GLN626      0.2608
    126  OE1       -7.0750   40.4940   14.7440 O.2   626  GLN626     -0.2717
    127  NE2       -9.2270   39.8760   14.6490 N.am  626  GLN626     -0.0878
    128  N          0.8560   36.5450    2.8730 N.3   687  ASP687     -0.1225
    129  CA         1.1950   37.9420    3.1350 C.3   687  ASP687      0.1805
    130  C          2.0850   38.5210    2.0260 C.2   687  ASP687      0.2597
    131  O          2.5100   37.8240    1.1110 O.2   687  ASP687     -0.2718
    132  CB         1.8770   38.0560    4.5000 C.3   687  ASP687      0.1424
    133  CG         1.3150   39.1670    5.3410 C.2   687  ASP687      0.3668
    134  OD1        1.5060   39.1390    6.5770 O.co2 687  ASP687     -0.2456
    135  OD2        0.6720   40.1180    4.8590 O.co2 687  ASP687     -0.2456
    136  N          2.3820   39.8010    2.1260 N.am  688  GLU688     -0.1979
    137  CA         3.1350   40.4920    1.0830 C.3   688  GLU688      0.1602
    138  C          4.5470   39.9240    0.9510 C.2   688  GLU688      0.2287
    139  O          5.1590   39.5020    1.9430 O.2   688  GLU688     -0.2864
    140  CB         3.2030   42.0050    1.3640 C.3   688  GLU688      0.0415
    141  CG         2.0070   42.5140    2.1450 C.3   688  GLU688      0.1163
    142  CD         1.9580   43.9950    2.2720 C.2   688  GLU688      0.3649
    143  OE1        2.7660   44.6920    1.6230 O.co2 688  GLU688     -0.2457
    144  OE2        1.1050   44.4490    3.0470 O.co2 688  GLU688     -0.2457
    145  N         -9.0700   46.9400    5.0140 N.3   741  LEU741     -0.1245
    146  CA        -8.9710   47.6130    6.2910 C.3   741  LEU741      0.1561
    147  C         -8.9890   49.1270    6.0910 C.2   741  LEU741      0.2260
    148  O         -8.2080   49.7000    5.3260 O.2   741  LEU741     -0.2867
    149  CB        -7.7370   47.1410    7.0510 C.3   741  LEU741      0.0270
    150  CG        -8.0960   45.8820    7.8350 C.3   741  LEU741      0.0019
    151  CD1       -7.7700   44.6360    7.0150 C.3   741  LEU741      0.0001
    152  CD2       -7.4050   45.8710    9.1740 C.3   741  LEU741      0.0001
    153  N         -8.4600   50.2900   11.6880 N.3   754  HIS754     -0.1241
    154  CA        -8.3080   48.8840   12.0780 C.3   754  HIS754      0.1621
    155  C         -9.6310   48.1000   12.0030 C.2   754  HIS754      0.2264
    156  O         -9.8650   47.1710   12.7790 O.2   754  HIS754     -0.2867
    157  CB        -7.6640   48.7780   13.4700 C.3   754  HIS754      0.0745
    158  CG        -6.3240   49.4410   13.5670 C.ar  754  HIS754      0.0817
    159  ND1       -6.0890   50.5380   14.3700 N.ar  754  HIS754     -0.2268
    160  CD2       -5.1520   49.1730   12.9460 C.ar  754  HIS754      0.1154
    161  CE1       -4.8280   50.9110   14.2490 C.ar  754  HIS754      0.1986
    162  NE2       -4.2360   50.0990   13.3910 N.ar  754  HIS754     -0.2212
@<TRIPOS>BOND
     1   138   137    1
     2   138   139    2
     3   137   140    1
     4   137   136    1
     5   131   130    2
     6   140   141    1
     7   143   142   ar
     8   130   136   am
     9   130   129    1
    10   141   142    1
    11   142   144   ar
    12   128   129    1
    13   129   132    1
    14    59    60    1
    15    59    65    1
    16    60    63    1
    17    60    61    1
    18    93    92    1
    19    93    94    1
    20    92    91    1
    21    63    64    1
    22    65    64    1
    23   132   133    1
    24    66    61   am
    25    66    67    1
    26    61    62    2
    27   135   133   ar
    28   145   146    1
    29    70    67    1
    30    70    71    1
    31    72    71    2
    32   148   147    2
    33    91    90    1
    34   133   134   ar
    35    67    68    1
    36    71    73   am
    37    90    87    1
    38   147   146    1
    39   146   149    1
    40    68    69    2
    41    68    74   am
    42   151   150    1
    43   149   150    1
    44    87    88    1
    45    87    86    1
    46   100    99    1
    47   150   152    1
    48    74    75    1
    49    88    89    2
    50    88    95   am
    51    86    84   am
    52    95    96    1
    53    81    80    1
    54    96    99    1
    55    96    97    1
    56    75    76    1
    57    75    78    1
    58    82    83    1
    59    76    77    2
    60    84    85    2
    61    84    83    1
    62    79    78    1
    63    79    80    1
    64    97    98    2
    65    97   101   am
    66   101   102    1
    67   108   109    1
    68   118   116    1
    69   153   154    1
    70   155   154    1
    71   155   156    2
    72   154   157    1
    73    57    56    2
    74   103   102    1
    75   103   104    2
    76   116   115    2
    77   116   117    1
    78   102   105    1
    79   113   112    1
    80   113   114    1
    81   109   112    1
    82   109   110    1
    83   115   114    1
    84    56    58   am
    85    56    55    1
    86    55    52    1
    87   160   162   ar
    88   160   158   ar
    89   105   106    1
    90   105   107    1
    91    53    52    1
    92    53    54    2
    93   110   119   am
    94   110   111    2
    95   162   161   ar
    96   157   158    1
    97   158   159   ar
    98    52    51    1
    99   119   120    1
   100   124   125    1
   101   124   123    1
   102   161   159   ar
   103   121   120    1
   104   121   122    2
   105   125   127   am
   106   125   126    2
   107   120   123    1
   108    49    47    1
   109    46    45    2
   110    47    48    1
   111    47    44    1
   112    48    50    1
   113    45    44    1
   114    42    41   ar
   115    42    40   ar
   116    41    39   ar
   117    44    43    1
   118    40    38   ar
   119     7     5    1
   120    43    34   am
   121    39    37   ar
   122     6     5    1
   123    38    37   ar
   124     5     2    1
   125    37    36    1
   126    34    35    2
   127    34    33    1
   128    15    13    1
   129    24    22   ar
   130    33    36    1
   131    33    32    1
   132    14    13    1
   133    28    27    2
   134    23    22   ar
   135     2     1    1
   136     2     3    1
   137    22    21    1
   138    13    12    1
   139    27    32   am
   140    27    26    1
   141     3     4    2
   142    21    20    1
   143    12     9    1
   144    30    31    1
   145    30    29    1
   146    31    25    1
   147    26    29    1
   148    26    25    1
   149    20    17    1
   150    25    18   am
   151    19    18    2
   152     9     8    1
   153     9    10    1
   154    18    17    1
   155    17    16    1
   156    10    11    2
