@<TRIPOS>MOLECULE
tmp/1nggA00.pdb
 170 158 0 0 0
SMALL
GASTEIGER

@<TRIPOS>ATOM
      1  N         15.2280   26.0030   13.4490 N.3    10  GLY10      -0.1210
      2  CA        15.5810   26.4090   14.7910 C.3    10  GLY10       0.1956
      3  C         14.3960   26.8560   15.6070 C.2    10  GLY10       0.2613
      4  O         13.3330   27.1660   15.0680 O.2    10  GLY10      -0.2717
      5  N         14.5880   26.9220   16.9180 N.am   11  THR11      -0.1938
      6  CA        13.5330   27.3470   17.8320 C.3    11  THR11       0.2028
      7  C         12.9870   28.7410   17.4920 C.2    11  THR11       0.2643
      8  O         11.7970   29.0060   17.6750 O.2    11  THR11      -0.2714
      9  CB        14.0530   27.3340   19.2860 C.3    11  THR11       0.1808
     10  OG1       14.5180   26.0140   19.6110 O.3    11  THR11      -0.2208
     11  CG2       12.9700   27.7300   20.2490 C.3    11  THR11       0.0379
     12  N         13.8400   29.6160   16.9530 N.am   12  THR12      -0.1936
     13  CA        13.4320   30.9790   16.6100 C.3    12  THR12       0.2028
     14  C         13.5700   31.3460   15.1270 C.2    12  THR12       0.2642
     15  O         12.8660   32.2350   14.6330 O.2    12  THR12      -0.2714
     16  CB        14.1940   32.0050   17.4780 C.3    12  THR12       0.1808
     17  OG1       15.5450   32.1080   17.0350 O.3    12  THR12      -0.2208
     18  CG2       14.2040   31.5540   18.9340 C.3    12  THR12       0.0379
     19  N         14.4710   30.6770   14.4160 N.am   13  TYR13      -0.1973
     20  CA        14.6720   30.9530   12.9930 C.3    13  TYR13       0.1639
     21  C         14.9100   29.6660   12.2260 C.2    13  TYR13       0.2290
     22  O         15.2650   28.6420   12.8170 O.2    13  TYR13      -0.2864
     23  CB        15.8760   31.8820   12.7770 C.3    13  TYR13       0.0560
     24  CG        15.6510   33.3320   13.1530 C.ar   13  TYR13      -0.0198
     25  CD1       15.1600   34.2410   12.2210 C.ar   13  TYR13      -0.0009
     26  CD2       15.9390   33.7940   14.4390 C.ar   13  TYR13      -0.0009
     27  CE1       14.9540   35.5740   12.5590 C.ar   13  TYR13       0.0417
     28  CE2       15.7400   35.1210   14.7870 C.ar   13  TYR13       0.0417
     29  CZ        15.2490   36.0090   13.8440 C.ar   13  TYR13       0.1957
     30  OH        15.0680   37.3410   14.1770 O.3    13  TYR13      -0.2866
     31  N         17.6480   34.1610    6.7790 N.3    35  THR35      -0.1218
     32  CA        17.0140   33.2990    7.7670 C.3    35  THR35       0.1862
     33  C         15.5750   33.8140    7.9030 C.2    35  THR35       0.2287
     34  O         15.3110   35.0060    7.7250 O.2    35  THR35      -0.2866
     35  CB        17.7120   33.3250    9.1460 C.3    35  THR35       0.1770
     36  OG1       17.9160   34.6780    9.5510 O.3    35  THR35      -0.2211
     37  CG2       19.0510   32.5870    9.0920 C.3    35  THR35       0.0375
     38  N          9.1680   23.9390   18.2140 N.3    69  LYS69      -0.1245
     39  CA        10.2620   22.9890   18.3790 C.3    69  LYS69       0.1561
     40  C         10.3200   22.4750   19.8240 C.2    69  LYS69       0.2260
     41  O         10.8040   21.3730   20.0780 O.2    69  LYS69      -0.2867
     42  CB        11.6010   23.6240   17.9770 C.3    69  LYS69       0.0271
     43  CG        12.7490   22.6340   17.8830 C.3    69  LYS69       0.0035
     44  CD        13.9710   23.2970   17.2880 C.3    69  LYS69       0.0206
     45  CE        15.1280   22.3190   17.1190 C.3    69  LYS69       0.1093
     46  NZ        16.2360   22.9320   16.3200 N.3    69  LYS69      -0.1314
     47  N         26.9310   26.2750   20.1310 N.3   197  ASP197     -0.1239
     48  CA        25.7130   26.7590   19.4890 C.3   197  ASP197      0.1674
     49  C         24.8520   27.6170   20.4090 C.2   197  ASP197      0.2266
     50  O         24.2480   27.1130   21.3530 O.2   197  ASP197     -0.2867
     51  CB        24.9080   25.5520   18.9860 C.3   197  ASP197      0.1410
     52  CG        23.8240   25.9360   17.9880 C.2   197  ASP197      0.3668
     53  OD1       23.6490   27.1360   17.7070 O.co2 197  ASP197     -0.2456
     54  OD2       23.1440   25.0250   17.4620 O.co2 197  ASP197     -0.2456
     55  N         21.8600   30.1300   19.9210 N.3   199  GLY199     -0.1210
     56  CA        20.8980   30.7300   19.0170 C.3   199  GLY199      0.1956
     57  C         19.9690   31.7500   19.6320 C.2   199  GLY199      0.2612
     58  O         20.3740   32.5630   20.4620 O.2   199  GLY199     -0.2717
     59  N         18.7170   31.7330   19.1850 N.am  200  GLY200     -0.1942
     60  CA        17.7170   32.6630   19.6870 C.3   200  GLY200      0.2014
     61  C         17.2230   32.3760   21.0930 C.2   200  GLY200      0.2639
     62  O         17.0480   33.3060   21.8790 O.2   200  GLY200     -0.2714
     63  N         16.9850   31.1080   21.4150 N.am  201  GLY201     -0.1939
     64  CA        16.5050   30.7880   22.7480 C.3   201  GLY201      0.2014
     65  C         17.1360   29.5610   23.3980 C.2   201  GLY201      0.2639
     66  O         16.7800   29.2180   24.5300 O.2   201  GLY201     -0.2714
     67  N         18.0570   28.8980   22.7060 N.am  202  THR202     -0.1950
     68  CA        18.7130   27.7210   23.2510 C.3   202  THR202      0.1897
     69  C         20.2440   27.7910   23.1550 C.2   202  THR202      0.2313
     70  O         20.7990   28.4130   22.2380 O.2   202  THR202     -0.2863
     71  CB        18.2550   26.4230   22.5130 C.3   202  THR202      0.1794
     72  OG1       18.6730   26.4620   21.1510 O.3   202  THR202     -0.2208
     73  CG2       16.7390   26.2930   22.5500 C.3   202  THR202      0.0378
     74  N         19.6910   34.4640   22.4900 N.3   228  GLY228     -0.1210
     75  CA        19.6960   35.8890   22.1940 C.3   228  GLY228      0.1956
     76  C         18.5330   36.6780   22.7660 C.2   228  GLY228      0.2611
     77  O         18.6340   37.8980   22.9480 O.2   228  GLY228     -0.2717
     78  N         17.4200   35.9960   23.0090 N.am  229  GLU229     -0.1979
     79  CA        16.2320   36.6330   23.5650 C.3   229  GLU229      0.1602
     80  C         16.4680   37.1320   24.9810 C.2   229  GLU229      0.2287
     81  O         15.9930   38.2060   25.3550 O.2   229  GLU229     -0.2864
     82  CB        15.0460   35.6740   23.5200 C.3   229  GLU229      0.0415
     83  CG        14.7390   35.2210   22.1090 C.3   229  GLU229      0.1163
     84  CD        13.2790   34.9300   21.8940 C.2   229  GLU229      0.3649
     85  OE1       12.4770   35.8960   21.8750 O.co2 229  GLU229     -0.2457
     86  OE2       12.9410   33.7370   21.7420 O.co2 229  GLU229     -0.2457
     87  N         18.1840   40.4490   24.8260 N.3   232  ASP232     -0.1239
     88  CA        17.2420   41.5110   24.4670 C.3   232  ASP232      0.1674
     89  C         16.4880   41.9360   25.7210 C.2   232  ASP232      0.2266
     90  O         16.3870   43.1240   26.0160 O.2   232  ASP232     -0.2867
     91  CB        16.2310   41.0260   23.4230 C.3   232  ASP232      0.1410
     92  CG        16.8780   40.5830   22.1320 C.2   232  ASP232      0.3668
     93  OD1       17.9230   41.1330   21.7470 O.co2 232  ASP232     -0.2456
     94  OD2       16.3390   39.6730   21.4840 O.co2 232  ASP232     -0.2456
     95  N         16.5210   44.3380   19.9880 N.3   266  GLU266     -0.1245
     96  CA        17.0690   43.2120   19.2310 C.3   266  GLU266      0.1567
     97  C         17.8550   43.7310   18.0200 C.2   266  GLU266      0.2260
     98  O         18.9090   43.1970   17.6540 O.2   266  GLU266     -0.2867
     99  CB        15.9210   42.2980   18.7820 C.3   266  GLU266      0.0388
    100  CG        16.3220   40.8900   18.3160 C.3   266  GLU266      0.1160
    101  CD        16.7610   40.8090   16.8570 C.2   266  GLU266      0.3649
    102  OE1       16.4450   41.7150   16.0560 O.co2 266  GLU266     -0.2457
    103  OE2       17.4130   39.8090   16.4930 O.co2 266  GLU266     -0.2457
    104  N         21.0900   45.5350   19.1490 N.3   269  LYS269     -0.1231
    105  CA        22.0050   44.4720   19.5530 C.3   269  LYS269      0.1693
    106  C         22.7880   43.9470   18.3490 C.2   269  LYS269      0.2591
    107  O         23.9870   43.7300   18.4350 O.2   269  LYS269     -0.2718
    108  CB        21.2200   43.3250   20.1930 C.3   269  LYS269      0.0285
    109  CG        22.0620   42.1180   20.5330 C.3   269  LYS269      0.0035
    110  CD        21.2280   40.9110   20.9470 C.3   269  LYS269      0.0206
    111  CE        20.4630   40.3190   19.7720 C.3   269  LYS269      0.1093
    112  NZ        19.6930   39.1310   20.1800 N.3   269  LYS269     -0.1314
    113  N         22.1060   43.7380   17.2300 N.am  270  ARG270     -0.1980
    114  CA        22.7690   43.2480   16.0310 C.3   270  ARG270      0.1597
    115  C         23.8450   44.2140   15.5420 C.2   270  ARG270      0.2287
    116  O         24.9420   43.7940   15.1910 O.2   270  ARG270     -0.2864
    117  CB        21.7550   42.9980   14.9120 C.3   270  ARG270      0.0334
    118  CG        20.7580   41.8910   15.2050 C.3   270  ARG270      0.0492
    119  CD        19.9250   41.5730   13.9710 C.3   270  ARG270      0.2205
    120  NE        18.8790   40.6030   14.2790 N.pl3 270  ARG270     -0.0865
    121  CZ        18.5540   39.5650   13.5120 C.cat 270  ARG270      0.5346
    122  NH1       19.1640   39.3840   12.3450 N.pl3 270  ARG270      0.1354
    123  NH2       17.5930   38.7320   13.8990 N.pl3 270  ARG270      0.1354
    124  N         27.2390   44.3820   17.3010 N.3   273  SER273     -0.1217
    125  CA        28.2240   43.3560   16.9930 C.3   273  SER273      0.1889
    126  C         29.2300   43.8470   15.9290 C.2   273  SER273      0.2288
    127  O         30.1580   43.1290   15.5590 O.2   273  SER273     -0.2866
    128  CB        27.5340   42.0690   16.5300 C.3   273  SER273      0.2089
    129  OG        26.8510   41.4440   17.6070 O.3   273  SER273     -0.2183
    130  N         25.0170   29.4620   15.6380 N.3   336  GLY336     -0.1210
    131  CA        23.9930   30.2660   16.2820 C.3   336  GLY336      0.1956
    132  C         24.2370   31.7480   16.1080 C.2   336  GLY336      0.2612
    133  O         25.3650   32.2130   16.2710 O.2   336  GLY336     -0.2717
    134  N         23.1700   32.4860   15.8020 N.am  337  GLY337     -0.1942
    135  CA        23.2630   33.9170   15.5720 C.3   337  GLY337      0.2014
    136  C         23.8750   34.7380   16.6860 C.2   337  GLY337      0.2639
    137  O         24.4280   35.8070   16.4340 O.2   337  GLY337     -0.2714
    138  N         23.7430   34.2750   17.9210 N.am  338  SER338     -0.1949
    139  CA        24.2960   34.9920   19.0600 C.3   338  SER338      0.1924
    140  C         25.8340   34.9630   19.1650 C.2   338  SER338      0.2314
    141  O         26.4270   35.8400   19.7950 O.2   338  SER338     -0.2863
    142  CB        23.6600   34.4890   20.3560 C.3   338  SER338      0.2116
    143  OG        22.3080   34.9100   20.4460 O.3   338  SER338     -0.2180
    144  N         27.8720   35.8280   17.0670 N.3   340  ARG340     -0.1231
    145  CA        28.4310   36.9690   16.3420 C.3   340  ARG340      0.1694
    146  C         28.8300   38.0410   17.3420 C.2   340  ARG340      0.2591
    147  O         29.4220   39.0500   16.9730 O.2   340  ARG340     -0.2718
    148  CB        27.4090   37.6020   15.3840 C.3   340  ARG340      0.0321
    149  CG        27.0980   36.8380   14.1070 C.3   340  ARG340      0.0489
    150  CD        26.2520   37.7170   13.1700 C.3   340  ARG340      0.2205
    151  NE        26.0120   37.1280   11.8470 N.pl3 340  ARG340     -0.0865
    152  CZ        24.9080   36.4670   11.5020 C.cat 340  ARG340      0.5346
    153  NH1       23.9300   36.3080   12.3850 N.pl3 340  ARG340      0.1354
    154  NH2       24.7840   35.9640   10.2770 N.pl3 340  ARG340      0.1354
    155  N         28.4570   37.8670   18.6030 N.am  341  ILE341     -0.1980
    156  CA        28.7870   38.8600   19.6140 C.3   341  ILE341      0.1595
    157  C         30.2690   38.7830   19.9930 C.2   341  ILE341      0.2287
    158  O         30.7630   37.7360   20.4230 O.2   341  ILE341     -0.2864
    159  CB        27.9060   38.7020   20.8730 C.3   341  ILE341      0.0276
    160  CG1       26.4350   38.9260   20.5110 C.3   341  ILE341      0.0022
    161  CG2       28.3230   39.7100   21.9440 C.3   341  ILE341      0.0022
    162  CD1       25.4570   38.6080   21.6460 C.3   341  ILE341      0.0001
    163  N         24.6500   31.4200   11.9520 N.3   364  ASP364     -0.1239
    164  CA        23.2140   31.1120   11.9170 C.3   364  ASP364      0.1674
    165  C         22.8230   30.4140   10.6120 C.2   364  ASP364      0.2266
    166  O         21.6680   30.0140   10.4310 O.2   364  ASP364     -0.2867
    167  CB        22.3680   32.3760   12.1390 C.3   364  ASP364      0.1410
    168  CG        22.7370   33.5180   11.2070 C.2   364  ASP364      0.3668
    169  OD1       23.6950   33.4070   10.4130 O.co2 364  ASP364     -0.2456
    170  OD2       22.0750   34.5700   11.2990 O.co2 364  ASP364     -0.2456
@<TRIPOS>BOND
     1    31    32    1
     2    34    33    2
     3    32    33    1
     4    32    35    1
     5    37    35    1
     6    35    36    1
     7   154   152    1
     8   169   168   ar
     9   166   165    2
    10   165   164    1
    11   168   170   ar
    12   168   167    1
    13   152   151    2
    14   152   153    1
    15   151   150    1
    16   164   163    1
    17   164   167    1
    18    25    27   ar
    19    25    24   ar
    20    21    22    2
    21    21    20    1
    22   122   121    1
    23    27    29   ar
    24    23    20    1
    25    23    24    1
    26    20    19    1
    27    24    26   ar
    28   150   149    1
    29     1     2    1
    30   121   123    1
    31   121   120    2
    32    29    30    1
    33    29    28   ar
    34   119   120    1
    35   119   118    1
    36   149   148    1
    37    19    14   am
    38    26    28   ar
    39    15    14    2
    40     2     3    1
    41   117   118    1
    42   117   114    1
    43     4     3    2
    44    14    13    1
    45   116   115    2
    46   148   145    1
    47   115   114    1
    48   127   126    2
    49   135   134    1
    50   135   136    1
    51     3     5   am
    52   130   131    1
    53   134   132   am
    54   126   125    1
    55   114   113    1
    56   102   101   ar
    57   132   133    2
    58   132   131    1
    59    46    45    1
    60   145   144    1
    61   145   146    1
    62   137   136    2
    63   103   101   ar
    64   128   125    1
    65   128   129    1
    66    13    12    1
    67    13    16    1
    68   136   138   am
    69   101   100    1
    70     5     6    1
    71    12     7   am
    72   147   146    2
    73   125   124    1
    74    17    16    1
    75    45    44    1
    76   113   106   am
    77    44    43    1
    78   146   155   am
    79    54    52   ar
    80    16    18    1
    81     7     8    2
    82     7     6    1
    83    98    97    2
    84    53    52   ar
    85     6     9    1
    86    43    42    1
    87   138   139    1
    88    42    39    1
    89    52    51    1
    90    97    96    1
    91    38    39    1
    92   100    99    1
    93   106   107    2
    94   106   105    1
    95    39    40    1
    96   155   156    1
    97    99    96    1
    98    51    48    1
    99    56    57    1
   100    56    55    1
   101   139   140    1
   102   139   142    1
   103   104   105    1
   104   140   141    2
   105    59    57   am
   106    59    60    1
   107    96    95    1
   108     9    10    1
   109     9    11    1
   110    48    47    1
   111    48    49    1
   112   105   108    1
   113   156   157    1
   114   156   159    1
   115    57    58    2
   116    60    61    1
   117   111   112    1
   118   111   110    1
   119    40    41    2
   120   157   158    2
   121   108   109    1
   122   142   143    1
   123    49    50    2
   124   160   159    1
   125   160   162    1
   126   109   110    1
   127   159   161    1
   128    61    63   am
   129    61    62    2
   130    72    71    1
   131    63    64    1
   132    94    92   ar
   133    86    84   ar
   134    93    92   ar
   135    85    84   ar
   136    84    83    1
   137    83    82    1
   138    92    91    1
   139    75    74    1
   140    75    76    1
   141    70    69    2
   142    71    73    1
   143    71    68    1
   144    67    68    1
   145    67    65   am
   146    64    65    1
   147    76    77    2
   148    76    78   am
   149    78    79    1
   150    69    68    1
   151    65    66    2
   152    91    88    1
   153    82    79    1
   154    79    80    1
   155    88    87    1
   156    88    89    1
   157    80    81    2
   158    89    90    2
