@<TRIPOS>MOLECULE
tmp/1ngiA00.pdb
 189 177 0 0 0
SMALL
GASTEIGER

@<TRIPOS>ATOM
      1  N         17.5750   24.0420    8.1630 N.3     7  ASP7       -0.1239
      2  CA        17.8000   24.1640    9.5810 C.3     7  ASP7        0.1674
      3  C         16.4810   24.6950   10.1550 C.2     7  ASP7        0.2266
      4  O         16.0230   25.7850    9.7880 O.2     7  ASP7       -0.2867
      5  CB        18.9340   25.1420    9.8510 C.3     7  ASP7        0.1410
      6  CG        18.9830   25.6080   11.2960 C.2     7  ASP7        0.3668
      7  OD1       18.6200   24.8640   12.2340 O.co2   7  ASP7       -0.2456
      8  OD2       19.4160   26.7440   11.5000 O.co2   7  ASP7       -0.2456
      9  N         15.1410   25.9870   13.3160 N.3     9  GLY9       -0.1210
     10  CA        15.4400   26.4740   14.6480 C.3     9  GLY9        0.1956
     11  C         14.2380   26.8610   15.4740 C.2     9  GLY9        0.2613
     12  O         13.1330   27.0020   14.9490 O.2     9  GLY9       -0.2717
     13  N         14.4560   27.0400   16.7710 N.am   10  THR10      -0.1938
     14  CA        13.3890   27.4180   17.6900 C.3    10  THR10       0.2028
     15  C         12.8940   28.8290   17.4030 C.2    10  THR10       0.2643
     16  O         11.7270   29.1420   17.6400 O.2    10  THR10      -0.2714
     17  CB        13.8730   27.3930   19.1580 C.3    10  THR10       0.1808
     18  OG1       14.5820   26.1720   19.4130 O.3    10  THR10      -0.2208
     19  CG2       12.7020   27.4960   20.1080 C.3    10  THR10       0.0379
     20  N         13.7990   29.6830   16.9220 N.am   11  THR11      -0.1936
     21  CA        13.4650   31.0770   16.6410 C.3    11  THR11       0.2028
     22  C         13.6340   31.4740   15.1790 C.2    11  THR11       0.2642
     23  O         12.9070   32.3280   14.6720 O.2    11  THR11      -0.2714
     24  CB        14.2780   32.0360   17.5420 C.3    11  THR11       0.1808
     25  OG1       15.6740   31.8460   17.2980 O.3    11  THR11      -0.2208
     26  CG2       14.0210   31.7410   19.0180 C.3    11  THR11       0.0379
     27  N         14.6010   30.8700   14.4980 N.am   12  TYR12      -0.1973
     28  CA        14.8410   31.1720   13.0890 C.3    12  TYR12       0.1639
     29  C         15.1590   29.9030   12.3100 C.2    12  TYR12       0.2290
     30  O         15.7040   28.9410   12.8650 O.2    12  TYR12      -0.2864
     31  CB        15.9850   32.1740   12.9130 C.3    12  TYR12       0.0560
     32  CG        15.6600   33.5820   13.3630 C.ar   12  TYR12      -0.0198
     33  CD1       15.8080   33.9510   14.6990 C.ar   12  TYR12      -0.0009
     34  CD2       15.2360   34.5530   12.4520 C.ar   12  TYR12      -0.0009
     35  CE1       15.5470   35.2430   15.1260 C.ar   12  TYR12       0.0417
     36  CE2       14.9670   35.8650   12.8720 C.ar   12  TYR12       0.0417
     37  CZ        15.1330   36.1990   14.2170 C.ar   12  TYR12       0.1957
     38  OH        14.9270   37.4910   14.6740 O.3    12  TYR12      -0.2866
     39  N         17.7240   34.2190    6.8800 N.3    34  THR34      -0.1218
     40  CA        17.1050   33.3540    7.8810 C.3    34  THR34       0.1862
     41  C         15.6980   33.9410    8.0730 C.2    34  THR34       0.2287
     42  O         15.5010   35.1500    7.9230 O.2    34  THR34      -0.2866
     43  CB        17.8700   33.3560    9.2290 C.3    34  THR34       0.1770
     44  OG1       17.9820   34.7000    9.7130 O.3    34  THR34      -0.2211
     45  CG2       19.2690   32.7410    9.0690 C.3    34  THR34       0.0375
     46  N          9.2380   24.0980   18.3030 N.3    68  LYS68      -0.1245
     47  CA        10.3320   23.1390   18.4280 C.3    68  LYS68       0.1561
     48  C         10.3860   22.5980   19.8540 C.2    68  LYS68       0.2260
     49  O         10.8220   21.4650   20.0780 O.2    68  LYS68      -0.2867
     50  CB        11.6710   23.7820   18.0440 C.3    68  LYS68       0.0271
     51  CG        12.8010   22.7810   17.8530 C.3    68  LYS68       0.0035
     52  CD        14.0250   23.4660   17.2890 C.3    68  LYS68       0.0206
     53  CE        15.1210   22.4750   16.9560 C.3    68  LYS68       0.1093
     54  NZ        16.2300   23.1340   16.2240 N.3    68  LYS68      -0.1314
     55  N         26.9260   26.2690   20.1930 N.3   196  ASP196     -0.1239
     56  CA        25.7010   26.7360   19.5500 C.3   196  ASP196      0.1674
     57  C         24.8600   27.6090   20.4730 C.2   196  ASP196      0.2266
     58  O         24.2670   27.1100   21.4330 O.2   196  ASP196     -0.2867
     59  CB        24.8960   25.5080   19.1120 C.3   196  ASP196      0.1410
     60  CG        23.7840   25.8390   18.1290 C.2   196  ASP196      0.3668
     61  OD1       23.5630   27.0230   17.8040 O.co2 196  ASP196     -0.2456
     62  OD2       23.1160   24.8950   17.6650 O.co2 196  ASP196     -0.2456
     63  N         21.9080   30.1220   19.8650 N.3   198  GLY198     -0.1210
     64  CA        20.9610   30.7660   18.9760 C.3   198  GLY198      0.1956
     65  C         20.0240   31.7480   19.6450 C.2   198  GLY198      0.2612
     66  O         20.3960   32.4700   20.5760 O.2   198  GLY198     -0.2717
     67  N         18.7900   31.7770   19.1490 N.am  199  GLY199     -0.1942
     68  CA        17.7860   32.6740   19.6930 C.3   199  GLY199      0.2014
     69  C         17.2370   32.2920   21.0540 C.2   199  GLY199      0.2639
     70  O         17.0500   33.1640   21.9030 O.2   199  GLY199     -0.2714
     71  N         17.0020   31.0070   21.2880 N.am  200  GLY200     -0.1939
     72  CA        16.4530   30.6050   22.5640 C.3   200  GLY200      0.2014
     73  C         17.1090   29.4450   23.2790 C.2   200  GLY200      0.2639
     74  O         16.7380   29.1470   24.4110 O.2   200  GLY200     -0.2714
     75  N         18.0790   28.7960   22.6450 N.am  201  THR201     -0.1950
     76  CA        18.7520   27.6510   23.2580 C.3   201  THR201      0.1897
     77  C         20.2780   27.7370   23.1630 C.2   201  THR201      0.2313
     78  O         20.8190   28.3830   22.2580 O.2   201  THR201     -0.2863
     79  CB        18.3070   26.3270   22.5890 C.3   201  THR201      0.1794
     80  OG1       18.6570   26.3520   21.2020 O.3   201  THR201     -0.2208
     81  CG2       16.8000   26.1470   22.7080 C.3   201  THR201      0.0378
     82  N         19.6520   34.4210   22.5180 N.3   227  GLY227     -0.1210
     83  CA        19.6080   35.8320   22.1770 C.3   227  GLY227      0.1956
     84  C         18.4540   36.6170   22.7660 C.2   227  GLY227      0.2611
     85  O         18.5760   37.8170   23.0050 O.2   227  GLY227     -0.2717
     86  N         17.3270   35.9490   22.9740 N.am  228  GLU228     -0.1979
     87  CA        16.1560   36.5970   23.5530 C.3   228  GLU228      0.1602
     88  C         16.3940   37.1040   24.9770 C.2   228  GLU228      0.2287
     89  O         15.8940   38.1670   25.3550 O.2   228  GLU228     -0.2864
     90  CB        14.9590   35.6460   23.4920 C.3   228  GLU228      0.0415
     91  CG        14.6090   35.2650   22.0570 C.3   228  GLU228      0.1163
     92  CD        13.2720   34.5720   21.9180 C.2   228  GLU228      0.3649
     93  OE1       12.2600   35.2820   21.7110 O.co2 228  GLU228     -0.2457
     94  OE2       13.2410   33.3210   21.9890 O.co2 228  GLU228     -0.2457
     95  N         19.1890   38.2290   26.1570 N.3   230  PHE230     -0.1227
     96  CA        20.0400   39.4110   26.0740 C.3   230  PHE230      0.1736
     97  C         19.1430   40.6160   25.8000 C.2   230  PHE230      0.2595
     98  O         19.3140   41.6800   26.4030 O.2   230  PHE230     -0.2718
     99  CB        21.1030   39.2520   24.9680 C.3   230  PHE230      0.0547
    100  CG        21.9660   38.0160   25.1170 C.ar  230  PHE230     -0.0202
    101  CD1       22.1610   37.4240   26.3670 C.ar  230  PHE230     -0.0042
    102  CD2       22.5380   37.4140   24.0000 C.ar  230  PHE230     -0.0042
    103  CE1       22.9040   36.2470   26.5040 C.ar  230  PHE230     -0.0003
    104  CE2       23.2840   36.2360   24.1250 C.ar  230  PHE230     -0.0003
    105  CZ        23.4660   35.6530   25.3810 C.ar  230  PHE230     -0.0000
    106  N         18.1620   40.4270   24.9170 N.am  231  ASP231     -0.1974
    107  CA        17.2070   41.4770   24.5670 C.3   231  ASP231      0.1709
    108  C         16.4620   41.9010   25.8260 C.2   231  ASP231      0.2293
    109  O         16.3290   43.0880   26.0910 O.2   231  ASP231     -0.2864
    110  CB        16.1890   40.9820   23.5380 C.3   231  ASP231      0.1436
    111  CG        16.8300   40.4470   22.2720 C.2   231  ASP231      0.3671
    112  OD1       17.9570   40.8430   21.9340 O.co2 231  ASP231     -0.2456
    113  OD2       16.2000   39.6100   21.5990 O.co2 231  ASP231     -0.2456
    114  N         16.4770   44.2810   19.9750 N.3   265  GLU265     -0.1245
    115  CA        17.0460   43.1650   19.2220 C.3   265  GLU265      0.1567
    116  C         17.8210   43.7120   18.0180 C.2   265  GLU265      0.2260
    117  O         18.8990   43.2180   17.6750 O.2   265  GLU265     -0.2867
    118  CB        15.9150   42.2370   18.7650 C.3   265  GLU265      0.0388
    119  CG        16.3350   40.8440   18.3120 C.3   265  GLU265      0.1160
    120  CD        16.7560   40.7580   16.8490 C.2   265  GLU265      0.3649
    121  OE1       16.5070   41.7000   16.0610 O.co2 265  GLU265     -0.2457
    122  OE2       17.3290   39.7130   16.4680 O.co2 265  GLU265     -0.2457
    123  N         20.9620   45.4540   19.2630 N.3   268  LYS268     -0.1231
    124  CA        21.8790   44.3960   19.6610 C.3   268  LYS268      0.1693
    125  C         22.7020   43.9010   18.4750 C.2   268  LYS268      0.2591
    126  O         23.9180   43.7580   18.5800 O.2   268  LYS268     -0.2718
    127  CB        21.1000   43.2330   20.2750 C.3   268  LYS268      0.0285
    128  CG        21.9460   42.0200   20.6030 C.3   268  LYS268      0.0035
    129  CD        21.1100   40.7990   20.9490 C.3   268  LYS268      0.0206
    130  CE        20.3710   40.2630   19.7270 C.3   268  LYS268      0.1093
    131  NZ        19.5920   39.0710   20.0830 N.3   268  LYS268     -0.1314
    132  N         22.0450   43.6410   17.3510 N.am  269  ARG269     -0.1980
    133  CA        22.7470   43.1690   16.1650 C.3   269  ARG269      0.1597
    134  C         23.7910   44.1970   15.7250 C.2   269  ARG269      0.2287
    135  O         24.9290   43.8410   15.4030 O.2   269  ARG269     -0.2864
    136  CB        21.7620   42.8950   15.0230 C.3   269  ARG269      0.0334
    137  CG        20.7070   41.8330   15.3170 C.3   269  ARG269      0.0492
    138  CD        20.0480   41.3330   14.0280 C.3   269  ARG269      0.2205
    139  NE        18.8430   40.5400   14.2760 N.pl3 269  ARG269     -0.0865
    140  CZ        18.4620   39.4770   13.5630 C.cat 269  ARG269      0.5346
    141  NH1       19.2150   39.0320   12.5620 N.pl3 269  ARG269      0.1354
    142  NH2       17.3430   38.8340   13.8780 N.pl3 269  ARG269      0.1354
    143  N         27.1420   44.3450   17.5410 N.3   272  SER272     -0.1217
    144  CA        28.1470   43.3430   17.2140 C.3   272  SER272      0.1889
    145  C         29.1620   43.8660   16.1990 C.2   272  SER272      0.2288
    146  O         30.2030   43.2490   15.9830 O.2   272  SER272     -0.2866
    147  CB        27.4840   42.0680   16.6850 C.3   272  SER272      0.2089
    148  OG        26.8220   41.3810   17.7310 O.3   272  SER272     -0.2183
    149  N         24.9900   29.5360   15.6700 N.3   335  GLY335     -0.1210
    150  CA        23.9730   30.3620   16.3010 C.3   335  GLY335      0.1956
    151  C         24.2300   31.8480   16.1290 C.2   335  GLY335      0.2612
    152  O         25.3660   32.2970   16.2510 O.2   335  GLY335     -0.2717
    153  N         23.1730   32.6140   15.8770 N.am  336  GLY336     -0.1942
    154  CA        23.3040   34.0430   15.6690 C.3   336  GLY336      0.2014
    155  C         23.9150   34.8060   16.8250 C.2   336  GLY336      0.2639
    156  O         24.5210   35.8560   16.6290 O.2   336  GLY336     -0.2714
    157  N         23.7580   34.2980   18.0370 N.am  337  SER337     -0.1949
    158  CA        24.3130   34.9830   19.1880 C.3   337  SER337      0.1924
    159  C         25.8440   34.8950   19.2920 C.2   337  SER337      0.2314
    160  O         26.4580   35.6820   20.0180 O.2   337  SER337     -0.2863
    161  CB        23.6580   34.4700   20.4620 C.3   337  SER337      0.2116
    162  OG        22.2690   34.7230   20.4320 O.3   337  SER337     -0.2180
    163  N         27.8970   35.8540   17.2210 N.3   339  ARG339     -0.1231
    164  CA        28.4730   37.0050   16.5270 C.3   339  ARG339      0.1694
    165  C         28.8560   38.0750   17.5430 C.2   339  ARG339      0.2591
    166  O         29.4920   39.0640   17.2020 O.2   339  ARG339     -0.2718
    167  CB        27.4730   37.6330   15.5540 C.3   339  ARG339      0.0321
    168  CG        27.2940   36.9300   14.2290 C.3   339  ARG339      0.0489
    169  CD        26.4540   37.8100   13.2970 C.3   339  ARG339      0.2205
    170  NE        26.3570   37.3020   11.9260 N.pl3 339  ARG339     -0.0865
    171  CZ        25.2930   36.6750   11.4330 C.cat 339  ARG339      0.5346
    172  NH1       24.2450   36.4390   12.2110 N.pl3 339  ARG339      0.1354
    173  NH2       25.2850   36.2520   10.1720 N.pl3 339  ARG339      0.1354
    174  N         28.4190   37.9140   18.7830 N.am  340  ILE340     -0.1980
    175  CA        28.7270   38.9000   19.8060 C.3   340  ILE340      0.1595
    176  C         30.2050   38.8010   20.1540 C.2   340  ILE340      0.2287
    177  O         30.6860   37.7360   20.5480 O.2   340  ILE340     -0.2864
    178  CB        27.8760   38.7010   21.0800 C.3   340  ILE340      0.0276
    179  CG1       26.3830   38.7990   20.7350 C.3   340  ILE340      0.0022
    180  CG2       28.2340   39.7560   22.1140 C.3   340  ILE340      0.0022
    181  CD1       25.4360   38.4640   21.8980 C.3   340  ILE340      0.0001
    182  N         24.7090   31.5340   12.1050 N.3   363  ASP363     -0.1239
    183  CA        23.2840   31.2010   12.0140 C.3   363  ASP363      0.1674
    184  C         22.9210   30.4970   10.7020 C.2   363  ASP363      0.2266
    185  O         21.7820   30.0860   10.5120 O.2   363  ASP363     -0.2867
    186  CB        22.4030   32.4440   12.2620 C.3   363  ASP363      0.1410
    187  CG        22.8170   33.6570   11.4360 C.2   363  ASP363      0.3668
    188  OD1       23.8640   33.6440   10.7470 O.co2 363  ASP363     -0.2456
    189  OD2       22.0980   34.6740   11.5030 O.co2 363  ASP363     -0.2456
@<TRIPOS>BOND
     1    39    40    1
     2    40    41    1
     3    40    43    1
     4    42    41    2
     5     1     2    1
     6    45    43    1
     7    43    44    1
     8     2     5    1
     9     2     3    1
    10     4     3    2
    11     5     6    1
    12   173   171    1
    13   185   184    2
    14   184   183    1
    15   188   187   ar
    16     6     8   ar
    17     6     7   ar
    18   171   170    2
    19   171   172    1
    20   187   189   ar
    21   187   186    1
    22   170   169    1
    23   183   182    1
    24   183   186    1
    25    29    30    2
    26    29    28    1
    27    34    36   ar
    28    34    32   ar
    29   141   140    1
    30    36    37   ar
    31    31    28    1
    32    31    32    1
    33    28    27    1
    34   169   168    1
    35     9    10    1
    36    32    33   ar
    37   140   142    1
    38   140   139    2
    39   138   139    1
    40   138   137    1
    41    37    38    1
    42    37    35   ar
    43   168   167    1
    44    27    22   am
    45    10    11    1
    46    23    22    2
    47    33    35   ar
    48    12    11    2
    49   136   137    1
    50   136   133    1
    51    22    21    1
    52   135   134    2
    53    11    13   am
    54   167   164    1
    55   154   153    1
    56   154   155    1
    57   149   150    1
    58   134   133    1
    59   153   151   am
    60   146   145    2
    61   121   120   ar
    62   151   152    2
    63   151   150    1
    64   133   132    1
    65   145   144    1
    66    54    53    1
    67   122   120   ar
    68   164   163    1
    69   164   165    1
    70   156   155    2
    71    21    20    1
    72    21    24    1
    73   147   144    1
    74   147   148    1
    75    13    14    1
    76   155   157   am
    77   120   119    1
    78    20    15   am
    79    53    52    1
    80   166   165    2
    81   144   143    1
    82    52    51    1
    83    25    24    1
    84   132   125   am
    85    15    16    2
    86    15    14    1
    87    24    26    1
    88   165   174   am
    89    62    60   ar
    90   117   116    2
    91    14    17    1
    92    61    60   ar
    93    51    50    1
    94   116   115    1
    95   157   158    1
    96    50    47    1
    97    60    59    1
    98    46    47    1
    99   119   118    1
   100    47    48    1
   101   125   126    2
   102   125   124    1
   103   118   115    1
   104   174   175    1
   105    64    65    1
   106    64    63    1
   107    59    56    1
   108    67    65   am
   109    67    68    1
   110    17    18    1
   111    17    19    1
   112   158   159    1
   113   158   161    1
   114   115   114    1
   115   123   124    1
   116   159   160    2
   117    56    55    1
   118    56    57    1
   119    65    66    2
   120   124   127    1
   121    68    69    1
   122   130   131    1
   123   130   129    1
   124   175   176    1
   125   175   178    1
   126    48    49    2
   127   176   177    2
   128   127   128    1
   129   162   161    1
   130    57    58    2
   131   128   129    1
   132   179   178    1
   133   179   181    1
   134    69    71   am
   135    69    70    2
   136   178   180    1
   137    80    79    1
   138    71    72    1
   139   113   111   ar
   140    93    92   ar
   141    92    94   ar
   142    92    91    1
   143   112   111   ar
   144    91    90    1
   145    83    82    1
   146    83    84    1
   147    78    77    2
   148   111   110    1
   149    72    73    1
   150    79    81    1
   151    79    76    1
   152    75    76    1
   153    75    73   am
   154    84    86   am
   155    84    85    2
   156    86    87    1
   157    77    76    1
   158    73    74    2
   159    90    87    1
   160   110   107    1
   161    87    88    1
   162   102   104   ar
   163   102   100   ar
   164   104   105   ar
   165   107   106    1
   166   107   108    1
   167   106    97   am
   168    99   100    1
   169    99    96    1
   170    88    89    2
   171   100   101   ar
   172   105   103   ar
   173    97    96    1
   174    97    98    2
   175   108   109    2
   176    96    95    1
   177   101   103   ar
