@<TRIPOS>MOLECULE
tmp/1ngkK00.pdb
 240 232 0 0 0
SMALL
GASTEIGER

@<TRIPOS>ATOM
      1  N         30.8090  -12.9220   31.7270 N.3    22  TYR22      -0.1241
      2  CA        31.6590  -11.7900   32.0710 C.3    22  TYR22       0.1605
      3  C         31.0770  -10.4220   31.7130 C.2    22  TYR22       0.2264
      4  O         31.3720   -9.4340   32.3880 O.2    22  TYR22      -0.2867
      5  CB        33.0850  -11.9890   31.5460 C.3    22  TYR22       0.0534
      6  CG        33.9780  -12.4170   32.6670 C.ar   22  TYR22      -0.0201
      7  CD1       34.5920  -11.4670   33.4760 C.ar   22  TYR22      -0.0009
      8  CD2       34.1480  -13.7650   32.9780 C.ar   22  TYR22      -0.0009
      9  CE1       35.3860  -11.8430   34.5430 C.ar   22  TYR22       0.0417
     10  CE2       34.9430  -14.1560   34.0510 C.ar   22  TYR22       0.0417
     11  CZ        35.5610  -13.1810   34.8240 C.ar   22  TYR22       0.1957
     12  OH        36.3470  -13.5180   35.8900 O.3    22  TYR22      -0.2866
     13  N         29.3380   -7.6940   41.8020 N.3    31  LEU31      -0.1245
     14  CA        30.4940   -8.4060   41.2740 C.3    31  LEU31       0.1561
     15  C         31.5210   -7.5340   40.5360 C.2    31  LEU31       0.2260
     16  O         32.7070   -7.8620   40.5210 O.2    31  LEU31      -0.2867
     17  CB        30.0190   -9.5590   40.3870 C.3    31  LEU31       0.0270
     18  CG        29.9550  -10.9990   40.9420 C.3    31  LEU31       0.0019
     19  CD1       30.0090  -11.1110   42.4760 C.3    31  LEU31       0.0001
     20  CD2       28.7500  -11.7420   40.3840 C.3    31  LEU31       0.0001
     21  N         34.3250   -6.7970   42.7110 N.3    34  VAL34      -0.1231
     22  CA        35.0860   -7.9200   43.2610 C.3    34  VAL34       0.1692
     23  C         36.1990   -8.3770   42.3220 C.2    34  VAL34       0.2592
     24  O         37.2970   -8.6850   42.7760 O.2    34  VAL34      -0.2718
     25  CB        34.1770   -9.1220   43.6230 C.3    34  VAL34       0.0266
     26  CG1       35.0050  -10.2940   44.1820 C.3    34  VAL34       0.0020
     27  CG2       33.1170   -8.7030   44.6160 C.3    34  VAL34       0.0020
     28  N         35.9020   -8.4480   41.0270 N.am   35  TYR35      -0.1963
     29  CA        36.9040   -8.8260   40.0350 C.3    35  TYR35       0.1756
     30  C         37.8710   -7.6570   39.8140 C.2    35  TYR35       0.2461
     31  O         37.4250   -6.5520   39.5120 O.2    35  TYR35      -0.2730
     32  CB        36.2480   -9.2010   38.7000 C.3    35  TYR35       0.0574
     33  CG        35.5100  -10.5200   38.6840 C.ar   35  TYR35      -0.0198
     34  CD1       34.3020  -10.6730   39.3740 C.ar   35  TYR35      -0.0009
     35  CD2       36.0030  -11.6110   37.9640 C.ar   35  TYR35      -0.0009
     36  CE1       33.6140  -11.8700   39.3630 C.ar   35  TYR35       0.0417
     37  CE2       35.3110  -12.8260   37.9390 C.ar   35  TYR35       0.0417
     38  CZ        34.1150  -12.9410   38.6460 C.ar   35  TYR35       0.1957
     39  OH        33.4060  -14.1130   38.6390 O.3    35  TYR35      -0.2866
     40  N         39.1760   -7.8790   40.0040 N.am   36  PRO36      -0.2727
     41  CA        40.1940   -6.8940   39.6090 C.3    36  PRO36       0.1402
     42  C         39.8980   -6.2450   38.2490 C.2    36  PRO36       0.2269
     43  O         39.8530   -6.9150   37.2150 O.2    36  PRO36      -0.2865
     44  CB        41.4780   -7.7340   39.5790 C.3    36  PRO36       0.0296
     45  CG        41.2630   -8.7340   40.7260 C.3    36  PRO36       0.0237
     46  CD        39.7810   -9.0500   40.6770 C.3    36  PRO36       0.0939
     47  N         42.2760   -6.6810   35.0410 N.3    39  ASP39      -0.1239
     48  CA        42.6370   -8.0390   34.6380 C.3    39  ASP39       0.1674
     49  C         41.4340   -8.8600   34.1530 C.2    39  ASP39       0.2266
     50  O         41.4060  -10.0850   34.3020 O.2    39  ASP39      -0.2867
     51  CB        43.3200   -8.7500   35.8130 C.3    39  ASP39       0.1410
     52  CG        44.0180  -10.0390   35.4000 C.2    39  ASP39       0.3668
     53  OD1       44.4510  -10.1420   34.2300 O.co2  39  ASP39      -0.2456
     54  OD2       44.1840  -11.0030   36.1840 O.co2  39  ASP39      -0.2456
     55  N         41.1420  -12.9880   33.4570 N.3    43  ALA43      -0.1245
     56  CA        40.1830  -13.6780   34.3160 C.3    43  ALA43       0.1562
     57  C         39.1520  -14.4600   33.4980 C.2    43  ALA43       0.2260
     58  O         38.8420  -15.6070   33.8120 O.2    43  ALA43      -0.2867
     59  CB        39.4880  -12.6810   35.2520 C.3    43  ALA43       0.0290
     60  N         40.9440  -17.6070   31.9360 N.3    46  ARG46      -0.1231
     61  CA        41.1910  -18.6320   32.9550 C.3    46  ARG46       0.1694
     62  C         39.9100  -19.4100   33.3190 C.2    46  ARG46       0.2591
     63  O         39.9360  -20.6430   33.4290 O.2    46  ARG46      -0.2718
     64  CB        41.8360  -18.0080   34.2050 C.3    46  ARG46       0.0321
     65  CG        43.3250  -17.6690   34.0340 C.3    46  ARG46       0.0489
     66  CD        44.0280  -17.2060   35.3150 C.3    46  ARG46       0.2205
     67  NE        43.5840  -15.8830   35.7660 N.pl3  46  ARG46      -0.0865
     68  CZ        44.0520  -14.7290   35.3120 C.cat  46  ARG46       0.5346
     69  NH1       44.9900  -14.7020   34.3630 N.pl3  46  ARG46       0.1354
     70  NH2       43.5740  -13.5880   35.8030 N.pl3  46  ARG46       0.1354
     71  N         38.7950  -18.6990   33.4930 N.am   47  LEU47      -0.1980
     72  CA        37.5180  -19.3760   33.7540 C.3    47  LEU47       0.1596
     73  C         37.1330  -20.2790   32.5780 C.2    47  LEU47       0.2287
     74  O         36.7940  -21.4620   32.7650 O.2    47  LEU47      -0.2864
     75  CB        36.3950  -18.3710   34.0620 C.3    47  LEU47       0.0297
     76  CG        35.0220  -18.9860   34.3910 C.3    47  LEU47       0.0022
     77  CD1       35.0680  -19.9510   35.5690 C.3    47  LEU47       0.0001
     78  CD2       33.9800  -17.9060   34.6440 C.3    47  LEU47       0.0001
     79  N         39.2990  -23.3250   32.5460 N.3    50  PHE50      -0.1227
     80  CA        38.9520  -24.2470   33.6200 C.3    50  PHE50       0.1736
     81  C         37.7180  -25.0540   33.2240 C.2    50  PHE50       0.2595
     82  O         37.6900  -26.2760   33.3660 O.2    50  PHE50      -0.2718
     83  CB        38.6800  -23.5320   34.9510 C.3    50  PHE50       0.0547
     84  CG        38.1030  -24.4480   35.9910 C.ar   50  PHE50      -0.0202
     85  CD1       38.9100  -25.4010   36.6130 C.ar   50  PHE50      -0.0042
     86  CD2       36.7420  -24.4060   36.3060 C.ar   50  PHE50      -0.0042
     87  CE1       38.3730  -26.2870   37.5580 C.ar   50  PHE50      -0.0003
     88  CE2       36.2020  -25.2810   37.2570 C.ar   50  PHE50      -0.0003
     89  CZ        37.0140  -26.2270   37.8780 C.ar   50  PHE50      -0.0000
     90  N         36.7030  -24.3570   32.7230 N.am   51  LEU51      -0.1980
     91  CA        35.4500  -25.0040   32.3940 C.3    51  LEU51       0.1596
     92  C         35.6290  -25.9840   31.2380 C.2    51  LEU51       0.2287
     93  O         35.1100  -27.0970   31.2960 O.2    51  LEU51      -0.2864
     94  CB        34.3440  -23.9760   32.1250 C.3    51  LEU51       0.0297
     95  CG        33.7860  -23.2940   33.3830 C.3    51  LEU51       0.0022
     96  CD1       32.8330  -22.1710   32.9880 C.3    51  LEU51       0.0001
     97  CD2       33.0990  -24.3150   34.3020 C.3    51  LEU51       0.0001
     98  N         44.2880  -25.9160   31.0630 N.3    61  TYR61      -0.1241
     99  CA        44.1650  -25.2950   32.3660 C.3    61  TYR61       0.1605
    100  C         45.1950  -25.8600   33.3550 C.2    61  TYR61       0.2264
    101  O         45.9910  -25.1070   33.9120 O.2    61  TYR61      -0.2867
    102  CB        42.7400  -25.4220   32.9390 C.3    61  TYR61       0.0534
    103  CG        42.6860  -24.7490   34.2950 C.ar   61  TYR61      -0.0201
    104  CD1       42.3870  -23.3860   34.3960 C.ar   61  TYR61      -0.0009
    105  CD2       42.9250  -25.4570   35.4630 C.ar   61  TYR61      -0.0009
    106  CE1       42.3500  -22.7470   35.6290 C.ar   61  TYR61       0.0417
    107  CE2       42.8940  -24.8200   36.7120 C.ar   61  TYR61       0.0417
    108  CZ        42.6120  -23.4670   36.7740 C.ar   61  TYR61       0.1957
    109  OH        42.5860  -22.8230   37.9830 O.3    61  TYR61      -0.2866
    110  N         48.0020  -23.6940   34.9890 N.3    65  ARG65      -0.1245
    111  CA        47.6380  -23.2350   36.3270 C.3    65  ARG65       0.1563
    112  C         47.7880  -24.2670   37.4700 C.2    65  ARG65       0.2260
    113  O         47.6160  -23.9160   38.6280 O.2    65  ARG65      -0.2867
    114  CB        46.1780  -22.7730   36.3340 C.3    65  ARG65       0.0307
    115  CG        45.8020  -21.8050   35.2350 C.3    65  ARG65       0.0489
    116  CD        46.5610  -20.5010   35.3980 C.3    65  ARG65       0.2205
    117  NE        46.2010  -19.7480   36.5960 N.pl3  65  ARG65      -0.0865
    118  CZ        46.8600  -18.6810   37.0380 C.cat  65  ARG65       0.5346
    119  NH1       47.9260  -18.2350   36.3800 N.pl3  65  ARG65       0.1354
    120  NH2       46.4470  -18.0520   38.1370 N.pl3  65  ARG65       0.1354
    121  N         40.6660  -24.1660   43.8140 N.3    70  LEU70      -0.1245
    122  CA        39.6970  -23.0610   43.7640 C.3    70  LEU70       0.1561
    123  C         39.4670  -22.3280   45.0840 C.2    70  LEU70       0.2260
    124  O         39.2850  -21.1190   45.0860 O.2    70  LEU70      -0.2867
    125  CB        38.3810  -23.5760   43.1470 C.3    70  LEU70       0.0270
    126  CG        38.4330  -23.9910   41.6500 C.3    70  LEU70       0.0019
    127  CD1       37.0380  -24.0120   41.0620 C.3    70  LEU70       0.0001
    128  CD2       39.3380  -23.0650   40.8450 C.3    70  LEU70       0.0001
    129  N         42.3730  -20.1260   45.3610 N.3    73  ARG73      -0.1231
    130  CA        42.3210  -19.0930   44.3180 C.3    73  ARG73       0.1694
    131  C         41.2790  -18.0290   44.6820 C.2    73  ARG73       0.2592
    132  O         41.4110  -16.8670   44.2830 O.2    73  ARG73      -0.2718
    133  CB        42.0230  -19.7460   42.9470 C.3    73  ARG73       0.0321
    134  CG        43.1560  -19.5920   41.9380 C.3    73  ARG73       0.0489
    135  CD        43.9760  -20.8590   41.8020 C.3    73  ARG73       0.2205
    136  NE        45.2530  -20.6370   41.1240 N.pl3  73  ARG73      -0.0865
    137  CZ        45.8400  -21.5370   40.3470 C.cat  73  ARG73       0.5346
    138  NH1       45.2850  -22.7250   40.1350 N.pl3  73  ARG73       0.1354
    139  NH2       47.0050  -21.2520   39.7710 N.pl3  73  ARG73       0.1354
    140  N         40.2470  -18.4190   45.4210 N.am   74  HIS74      -0.1976
    141  CA        39.2380  -17.4570   45.8250 C.3    74  HIS74       0.1656
    142  C         39.4720  -16.8620   47.2190 C.2    74  HIS74       0.2291
    143  O         38.7230  -15.9860   47.6460 O.2    74  HIS74      -0.2864
    144  CB        37.8310  -18.0580   45.7350 C.3    74  HIS74       0.0771
    145  CG        37.4330  -18.3560   44.2970 C.ar   74  HIS74       0.0820
    146  ND1       37.8340  -19.4990   43.6410 N.ar   74  HIS74      -0.2267
    147  CD2       36.7100  -17.6410   43.4020 C.ar   74  HIS74       0.1154
    148  CE1       37.3510  -19.4880   42.4090 C.ar   74  HIS74       0.1986
    149  NE2       36.6740  -18.3690   42.2370 N.ar   74  HIS74      -0.2212
    150  N         39.3670  -13.0670   48.0540 N.3    77  PHE77      -0.1241
    151  CA        38.0950  -12.3590   47.9710 C.3    77  PHE77       0.1605
    152  C         37.1430  -12.7420   49.0870 C.2    77  PHE77       0.2264
    153  O         37.0890  -13.8990   49.5090 O.2    77  PHE77      -0.2867
    154  CB        37.4530  -12.6200   46.5880 C.3    77  PHE77       0.0534
    155  CG        38.4800  -12.4820   45.4740 C.ar   77  PHE77      -0.0203
    156  CD1       39.0400  -13.5890   44.8220 C.ar   77  PHE77      -0.0042
    157  CD2       38.9130  -11.2390   45.0810 C.ar   77  PHE77      -0.0042
    158  CE1       39.9990  -13.4390   43.8450 C.ar   77  PHE77      -0.0003
    159  CE2       39.8830  -11.0640   44.1150 C.ar   77  PHE77      -0.0003
    160  CZ        40.4300  -12.1580   43.4770 C.ar   77  PHE77      -0.0000
    161  N         33.8300  -13.7790   49.7670 N.3    79  ILE79      -0.1245
    162  CA        32.6600  -14.2990   49.0790 C.3    79  ILE79       0.1561
    163  C         31.6090  -14.7490   50.0830 C.2    79  ILE79       0.2260
    164  O         31.7380  -15.7990   50.7040 O.2    79  ILE79      -0.2867
    165  CB        33.0360  -15.4610   48.1240 C.3    79  ILE79       0.0252
    166  CG1       34.1890  -15.0490   47.1900 C.3    79  ILE79       0.0019
    167  CG2       31.8030  -15.9080   47.3290 C.3    79  ILE79       0.0019
    168  CD1       34.6030  -16.1250   46.1990 C.3    79  ILE79       0.0001
    169  N         27.6280  -12.4450   47.1600 N.3    83  GLU83      -0.1231
    170  CA        28.4600  -12.6270   45.9770 C.3    83  GLU83       0.1699
    171  C         28.1550  -13.9520   45.3190 C.2    83  GLU83       0.2592
    172  O         28.1850  -14.0600   44.0960 O.2    83  GLU83      -0.2718
    173  CB        29.9550  -12.5270   46.3100 C.3    83  GLU83       0.0402
    174  CG        30.4270  -11.1170   46.6360 C.3    83  GLU83       0.1161
    175  CD        30.0700  -10.6850   48.0510 C.2    83  GLU83       0.3649
    176  OE1       30.0840   -9.4680   48.3080 O.co2  83  GLU83      -0.2457
    177  OE2       29.7830  -11.5540   48.9100 O.co2  83  GLU83      -0.2457
    178  N         27.8720  -14.9690   46.1280 N.am   84  ARG84      -0.1980
    179  CA        27.4790  -16.2590   45.5850 C.3    84  ARG84       0.1597
    180  C         26.2200  -16.0940   44.7240 C.2    84  ARG84       0.2287
    181  O         26.1590  -16.5890   43.5990 O.2    84  ARG84      -0.2864
    182  CB        27.2230  -17.2660   46.7050 C.3    84  ARG84       0.0334
    183  CG        26.8770  -18.6410   46.1970 C.3    84  ARG84       0.0492
    184  CD        26.0430  -19.4640   47.1490 C.3    84  ARG84       0.2205
    185  NE        24.7660  -18.8250   47.4560 N.pl3  84  ARG84      -0.0865
    186  CZ        23.8850  -19.3000   48.3320 C.cat  84  ARG84       0.5346
    187  NH1       24.1300  -20.4330   48.9940 N.pl3  84  ARG84       0.1354
    188  NH2       22.7480  -18.6460   48.5420 N.pl3  84  ARG84       0.1354
    189  N         26.8770  -14.0490   41.4910 N.3    87  TRP87      -0.1241
    190  CA        27.5960  -14.9260   40.5580 C.3    87  TRP87       0.1605
    191  C         26.6160  -15.8870   39.8670 C.2    87  TRP87       0.2264
    192  O         26.5940  -15.9970   38.6410 O.2    87  TRP87      -0.2867
    193  CB        28.6980  -15.6910   41.2980 C.3    87  TRP87       0.0550
    194  CG        29.7180  -16.3750   40.4070 C.ar   87  TRP87       0.0003
    195  CD1       30.9530  -15.8940   40.0360 C.ar   87  TRP87       0.0946
    196  CD2       29.5870  -17.6570   39.7810 C.ar   87  TRP87       0.0152
    197  NE1       31.5940  -16.8050   39.2250 N.ar   87  TRP87      -0.2442
    198  CE2       30.7790  -17.8980   39.0540 C.ar   87  TRP87       0.0810
    199  CE3       28.5820  -18.6370   39.7640 C.ar   87  TRP87       0.0012
    200  CZ2       30.9860  -19.0730   38.3170 C.ar   87  TRP87       0.0191
    201  CZ3       28.7910  -19.8100   39.0350 C.ar   87  TRP87       0.0001
    202  CH2       29.9820  -20.0160   38.3210 C.ar   87  TRP87       0.0015
    203  N         26.1880  -28.5400   38.6840 N.3   114  TYR114     -0.1227
    204  CA        27.5820  -28.3950   39.0670 C.3   114  TYR114      0.1736
    205  C         27.9260  -26.9500   39.4770 C.2   114  TYR114      0.2595
    206  O         28.5430  -26.7200   40.5220 O.2   114  TYR114     -0.2718
    207  CB        28.5200  -28.9050   37.9670 C.3   114  TYR114      0.0548
    208  CG        29.9360  -28.4180   38.1510 C.ar  114  TYR114     -0.0200
    209  CD1       30.4310  -27.3730   37.3710 C.ar  114  TYR114     -0.0009
    210  CD2       30.7620  -28.9670   39.1370 C.ar  114  TYR114     -0.0009
    211  CE1       31.7250  -26.8940   37.5440 C.ar  114  TYR114      0.0417
    212  CE2       32.0690  -28.4940   39.3260 C.ar  114  TYR114      0.0417
    213  CZ        32.5350  -27.4520   38.5220 C.ar  114  TYR114      0.1957
    214  OH        33.8040  -26.9650   38.6840 O.3   114  TYR114     -0.2866
    215  N         27.5230  -25.9830   38.6630 N.am  115  LEU115     -0.1980
    216  CA        27.8380  -24.5840   38.9480 C.3   115  LEU115      0.1596
    217  C         27.2210  -24.0920   40.2610 C.2   115  LEU115      0.2287
    218  O         27.8520  -23.3320   41.0020 O.2   115  LEU115     -0.2864
    219  CB        27.4230  -23.6900   37.7890 C.3   115  LEU115      0.0297
    220  CG        28.1040  -24.0110   36.4530 C.3   115  LEU115      0.0022
    221  CD1       27.3420  -23.3250   35.3420 C.3   115  LEU115      0.0001
    222  CD2       29.5870  -23.5700   36.4500 C.3   115  LEU115      0.0001
    223  N         29.2270  -25.6880   43.0760 N.3   118  ALA118     -0.1231
    224  CA        30.5790  -25.1270   43.1500 C.3   118  ALA118      0.1694
    225  C         30.5750  -23.7130   43.7180 C.2   118  ALA118      0.2591
    226  O         31.4310  -23.3730   44.5390 O.2   118  ALA118     -0.2718
    227  CB        31.2790  -25.1570   41.7760 C.3   118  ALA118      0.0304
    228  N         29.6190  -22.8960   43.2770 N.am  119  ALA119     -0.1980
    229  CA        29.4980  -21.5340   43.7850 C.3   119  ALA119      0.1597
    230  C         29.2550  -21.5580   45.2880 C.2   119  ALA119      0.2287
    231  O         29.9130  -20.8260   46.0290 O.2   119  ALA119     -0.2864
    232  CB        28.3980  -20.7540   43.0620 C.3   119  ALA119      0.0319
    233  N         32.2960  -22.2450   47.3970 N.3   122  LEU122     -0.1245
    234  CA        33.3400  -21.2190   47.4230 C.3   122  LEU122      0.1561
    235  C         33.0440  -20.0080   48.3220 C.2   122  LEU122      0.2260
    236  O         33.8400  -19.0740   48.3890 O.2   122  LEU122     -0.2867
    237  CB        33.6760  -20.7560   46.0050 C.3   122  LEU122      0.0270
    238  CG        34.3970  -21.7760   45.1210 C.3   122  LEU122      0.0019
    239  CD1       34.4370  -21.2610   43.6950 C.3   122  LEU122      0.0001
    240  CD2       35.8160  -22.0680   45.6500 C.3   122  LEU122      0.0001
@<TRIPOS>BOND
     1    98    99    1
     2    92    93    2
     3    92    91    1
     4     5     2    1
     5     5     6    1
     6     3     2    1
     7     3     4    2
     8     1     2    1
     9    60    61    1
    10    94    91    1
    11    94    95    1
    12    99   102    1
    13    99   100    1
    14    91    90    1
    15    79    80    1
    16    73    74    2
    17    73    72    1
    18     6     8   ar
    19     6     7   ar
    20    90    81   am
    21   102   103    1
    22    61    62    1
    23    61    64    1
    24     8    10   ar
    25    96    95    1
    26    81    82    2
    27    81    80    1
    28    62    63    2
    29    62    71   am
    30   100   101    2
    31    95    97    1
    32    55    56    1
    33     7     9   ar
    34    71    72    1
    35    57    58    2
    36    57    56    1
    37    80    83    1
    38    72    75    1
    39    65    64    1
    40    65    66    1
    41    10    11   ar
    42    75    76    1
    43    49    50    2
    44    49    48    1
    45    53    52   ar
    46   103   104   ar
    47   103   105   ar
    48    56    59    1
    49    69    68    1
    50    76    78    1
    51    76    77    1
    52   104   106   ar
    53     9    11   ar
    54    48    47    1
    55    48    51    1
    56    11    12    1
    57    83    84    1
    58   110   111    1
    59   115   116    1
    60   115   114    1
    61    68    67    2
    62    68    70    1
    63    66    67    1
    64   221   220    1
    65   116   117    1
    66    52    51    1
    67    52    54   ar
    68   105   107   ar
    69   106   108   ar
    70    84    86   ar
    71    84    85   ar
    72    86    88   ar
    73   111   114    1
    74   111   112    1
    75   119   118    1
    76   222   220    1
    77   220   219    1
    78   117   118    2
    79    85    87   ar
    80   107   108   ar
    81   108   109    1
    82   118   120    1
    83    43    42    2
    84    88    89   ar
    85   209   211   ar
    86   209   208   ar
    87   112   113    2
    88   211   213   ar
    89    87    89   ar
    90   219   216    1
    91    37    35   ar
    92    37    38   ar
    93    35    33   ar
    94   207   208    1
    95   207   204    1
    96   208   210   ar
    97    42    41    1
    98   200   202   ar
    99   200   198   ar
   100   202   201   ar
   101   213   214    1
   102   213   212   ar
   103    39    38    1
   104   192   191    2
   105    38    36   ar
   106   215   216    1
   107   215   205   am
   108   203   204    1
   109    33    32    1
   110    33    34   ar
   111    32    29    1
   112   216   217    1
   113   201   199   ar
   114   198   197   ar
   115   198   196   ar
   116   204   205    1
   117   210   212   ar
   118   197   195   ar
   119    36    34   ar
   120   205   206    2
   121    31    30    2
   122    44    41    1
   123    44    45    1
   124    41    40    1
   125   199   196   ar
   126   139   137    1
   127   196   194   ar
   128    30    40   am
   129    30    29    1
   130   191   190    1
   131    40    46    1
   132    29    28    1
   133   195   194   ar
   134   138   137    1
   135   217   218    2
   136   137   136    2
   137    20    18    1
   138    17    18    1
   139    17    14    1
   140   194   193    1
   141    16    15    2
   142    15    14    1
   143   190   193    1
   144   190   189    1
   145    46    45    1
   146   128   126    1
   147    18    19    1
   148    28    23   am
   149   127   126    1
   150   136   135    1
   151    14    13    1
   152   126   125    1
   153   227   224    1
   154   135   134    1
   155   134   133    1
   156   149   148   ar
   157   149   147   ar
   158    23    24    2
   159    23    22    1
   160   148   146   ar
   161    21    22    1
   162   133   130    1
   163   232   229    1
   164   223   224    1
   165   125   122    1
   166   224   225    1
   167    22    25    1
   168   228   225   am
   169   228   229    1
   170   147   145   ar
   171   160   158   ar
   172   160   159   ar
   173   181   180    2
   174    25    26    1
   175    25    27    1
   176   146   145   ar
   177   239   238    1
   178   225   226    2
   179   122   121    1
   180   122   123    1
   181   229   230    1
   182   158   156   ar
   183   172   171    2
   184   159   157   ar
   185   132   131    2
   186   145   144    1
   187   130   131    1
   188   130   129    1
   189   131   140   am
   190   180   179    1
   191   156   155   ar
   192   157   155   ar
   193   123   124    2
   194   238   240    1
   195   238   237    1
   196   230   231    2
   197   171   170    1
   198   171   178   am
   199   140   141    1
   200   155   154    1
   201   179   178    1
   202   179   182    1
   203   144   141    1
   204   141   142    1
   205   170   173    1
   206   170   169    1
   207   237   234    1
   208   183   182    1
   209   183   184    1
   210   168   166    1
   211   173   174    1
   212   154   151    1
   213   174   175    1
   214   184   185    1
   215   166   165    1
   216   142   143    2
   217   167   165    1
   218   233   234    1
   219   234   235    1
   220   185   186    2
   221   151   150    1
   222   151   152    1
   223   175   176   ar
   224   175   177   ar
   225   165   162    1
   226   235   236    2
   227   186   188    1
   228   186   187    1
   229   162   161    1
   230   162   163    1
   231   152   153    2
   232   163   164    2
