@<TRIPOS>MOLECULE
tmp/1ngsB03.pdb
 150 142 0 0 0
SMALL
GASTEIGER

@<TRIPOS>ATOM
      1  N         23.8050   84.0370   27.7950 N.3    28  HIS28      -0.1241
      2  CA        24.2540   83.4640   26.5310 C.3    28  HIS28       0.1621
      3  C         24.6820   84.5390   25.5390 C.2    28  HIS28       0.2264
      4  O         23.8420   85.2020   24.9300 O.2    28  HIS28      -0.2867
      5  CB        23.1340   82.6190   25.9430 C.3    28  HIS28       0.0745
      6  CG        22.5020   81.6920   26.9300 C.ar   28  HIS28       0.0817
      7  ND1       21.6010   82.1340   27.8980 N.ar   28  HIS28      -0.2268
      8  CD2       22.6020   80.3690   27.1000 C.ar   28  HIS28       0.1154
      9  CE1       21.1910   81.1150   28.5920 C.ar   28  HIS28       0.1986
     10  NE2       21.7690   80.0120   28.1490 N.ar   28  HIS28      -0.2212
     11  N         24.7630   83.3700   20.4270 N.3    31  ALA31      -0.1245
     12  CA        23.7820   83.6560   19.3840 C.3    31  ALA31       0.1562
     13  C         23.5740   85.1490   19.1490 C.2    31  ALA31       0.2260
     14  O         23.5340   85.5770   17.9980 O.2    31  ALA31      -0.2867
     15  CB        22.4510   82.9460   19.6480 C.3    31  ALA31       0.0290
     16  N         14.5230   80.9310   19.6750 N.3    65  ASN65      -0.1240
     17  CA        15.6860   80.5730   20.4790 C.3    65  ASN65       0.1653
     18  C         15.8230   81.6260   21.6080 C.2    65  ASN65       0.2266
     19  O         16.7520   82.4340   21.6340 O.2    65  ASN65      -0.2867
     20  CB        16.9510   80.4370   19.5940 C.3    65  ASN65       0.1155
     21  CG        17.2060   81.6470   18.6710 C.2    65  ASN65       0.2627
     22  OD1       18.3230   81.8100   18.1770 O.2    65  ASN65      -0.2716
     23  ND2       16.1820   82.4520   18.4000 N.am   65  ASN65      -0.0877
     24  N         16.9880   81.8470   24.6230 N.3    67  HIS67      -0.1241
     25  CA        18.1970   82.0680   25.4030 C.3    67  HIS67       0.1621
     26  C         19.0150   83.2430   24.8580 C.2    67  HIS67       0.2264
     27  O         19.8220   83.8260   25.5830 O.2    67  HIS67      -0.2867
     28  CB        19.0240   80.7850   25.5340 C.3    67  HIS67       0.0745
     29  CG        19.5310   80.2530   24.2260 C.ar   67  HIS67       0.0817
     30  ND1       18.7560   79.4560   23.4040 N.ar   67  HIS67      -0.2268
     31  CD2       20.6970   80.4350   23.5950 C.ar   67  HIS67       0.1154
     32  CE1       19.4430   79.1780   22.3100 C.ar   67  HIS67       0.1986
     33  NE2       20.6240   79.7570   22.3930 N.ar   67  HIS67      -0.2212
     34  N         14.9480   84.8600   30.3530 N.3   101  HIS101     -0.1241
     35  CA        14.2950   84.4740   29.1040 C.3   101  HIS101      0.1621
     36  C         13.0920   85.3790   28.8780 C.2   101  HIS101      0.2264
     37  O         12.3510   85.7030   29.8200 O.2   101  HIS101     -0.2867
     38  CB        13.8940   82.9980   29.0870 C.3   101  HIS101      0.0745
     39  CG        15.0530   82.0610   29.0980 C.ar  101  HIS101      0.0817
     40  ND1       15.6780   81.6720   30.2780 N.ar  101  HIS101     -0.2268
     41  CD2       15.7310   81.4450   28.1110 C.ar  101  HIS101      0.1154
     42  CE1       16.6710   80.8740   30.0010 C.ar  101  HIS101      0.1986
     43  NE2       16.7400   80.7040   28.6870 N.ar  101  HIS101     -0.2212
     44  N         11.8600   80.0440   25.9220 N.3   114  GLY114     -0.1210
     45  CA        12.9000   79.5460   26.7960 C.3   114  GLY114      0.1940
     46  C         12.9060   78.1080   26.3520 C.2   114  GLY114      0.2454
     47  O         13.9340   77.6150   25.8800 O.2   114  GLY114     -0.2732
     48  N         11.7750   77.4030   26.5220 N.am  115  PRO115     -0.2717
     49  CA        11.6420   76.0090   26.1150 C.3   115  PRO115      0.1535
     50  C         11.7500   76.0200   24.5910 C.2   115  PRO115      0.2598
     51  O         11.0660   76.7970   23.9080 O.2   115  PRO115     -0.2715
     52  CB        10.2380   75.6590   26.5980 C.3   115  PRO115      0.0310
     53  CG        10.1340   76.4450   27.8400 C.3   115  PRO115      0.0237
     54  CD        10.6380   77.7840   27.3790 C.3   115  PRO115      0.0939
     55  N         12.6890   75.2450   24.0700 N.am  116  LEU116     -0.1978
     56  CA        12.9170   75.1870   22.6390 C.3   116  LEU116      0.1596
     57  C         11.7280   74.5960   21.8970 C.2   116  LEU116      0.2287
     58  O         10.9410   73.8450   22.4680 O.2   116  LEU116     -0.2864
     59  CB        14.2010   74.4010   22.3490 C.3   116  LEU116      0.0297
     60  CG        15.4710   75.0650   22.8900 C.3   116  LEU116      0.0022
     61  CD1       16.6470   74.1130   22.9560 C.3   116  LEU116      0.0001
     62  CD2       15.8030   76.2380   22.0180 C.3   116  LEU116      0.0001
     63  N         17.0650   78.3180   16.1130 N.3   154  GLY154     -0.1210
     64  CA        18.3390   77.6290   16.0780 C.3   154  GLY154      0.1956
     65  C         18.2090   76.1380   15.8720 C.2   154  GLY154      0.2612
     66  O         17.1140   75.6150   15.6320 O.2   154  GLY154     -0.2717
     67  N         19.3320   75.4430   15.9900 N.am  155  ASP155     -0.1959
     68  CA        19.3520   73.9990   15.8220 C.3   155  ASP155      0.1840
     69  C         18.4330   73.3240   16.8420 C.2   155  ASP155      0.2623
     70  O         17.7220   72.3740   16.5070 O.2   155  ASP155     -0.2715
     71  CB        20.7770   73.4630   15.9820 C.3   155  ASP155      0.1450
     72  CG        21.7750   74.1780   15.0980 C.2   155  ASP155      0.3671
     73  OD1       21.7410   73.9780   13.8710 O.co2 155  ASP155     -0.2456
     74  OD2       22.5960   74.9430   15.6360 O.co2 155  ASP155     -0.2456
     75  N         18.4310   73.8400   18.0700 N.am  156  GLY156     -0.1940
     76  CA        17.6090   73.2900   19.1370 C.3   156  GLY156      0.2014
     77  C         16.1400   73.2440   18.7790 C.2   156  GLY156      0.2639
     78  O         15.4660   72.2310   18.9810 O.2   156  GLY156     -0.2714
     79  N         15.6570   74.3410   18.2090 N.am  157  CYS157     -0.1967
     80  CA        14.2690   74.4750   17.7890 C.3   157  CYS157      0.1712
     81  C         13.8870   73.4550   16.7250 C.2   157  CYS157      0.2296
     82  O         12.8350   72.8300   16.7990 O.2   157  CYS157     -0.2864
     83  CB        14.0330   75.8950   17.2810 C.3   157  CYS157      0.0983
     84  SG        13.9790   77.0900   18.6310 S.3   157  CYS157     -0.0798
     85  N         13.4340   69.6660   18.1570 N.3   160  GLU160     -0.1245
     86  CA        12.2330   69.3460   18.9330 C.3   160  GLU160      0.1567
     87  C         11.0460   69.0010   18.0140 C.2   160  GLU160      0.2260
     88  O         10.6550   69.7900   17.1530 O.2   160  GLU160     -0.2867
     89  CB        11.8580   70.5140   19.8650 C.3   160  GLU160      0.0388
     90  CG        12.8380   70.7980   21.0200 C.3   160  GLU160      0.1160
     91  CD        12.7070   69.8520   22.2150 C.2   160  GLU160      0.3649
     92  OE1       11.8380   68.9540   22.2160 O.co2 160  GLU160     -0.2457
     93  OE2       13.4820   70.0260   23.1740 O.co2 160  GLU160     -0.2457
     94  N         19.4200   80.3400   12.3320 N.3   183  ASP183     -0.1239
     95  CA        20.7820   80.5830   12.8030 C.3   183  ASP183      0.1674
     96  C         21.5350   79.2460   12.6460 C.2   183  ASP183      0.2266
     97  O         21.5680   78.4010   13.5450 O.2   183  ASP183     -0.2867
     98  CB        20.6980   81.0830   14.2710 C.3   183  ASP183      0.1410
     99  CG        22.0590   81.4070   14.9200 C.2   183  ASP183      0.3668
    100  OD1       23.0000   81.8910   14.3090 O.co2 183  ASP183     -0.2456
    101  OD2       22.2380   81.2540   16.1190 O.co2 183  ASP183     -0.2456
    102  N         24.5460   77.8580   12.7990 N.3   185  ASN185     -0.1240
    103  CA        25.9250   78.0260   13.2560 C.3   185  ASN185      0.1653
    104  C         26.7660   76.8060   13.6090 C.2   185  ASN185      0.2266
    105  O         27.9290   76.9630   13.9880 O.2   185  ASN185     -0.2867
    106  CB        26.0340   79.0890   14.3580 C.3   185  ASN185      0.1155
    107  CG        25.3050   78.7070   15.6170 C.2   185  ASN185      0.2627
    108  OD1       24.9100   77.5600   15.7950 O.2   185  ASN185     -0.2716
    109  ND2       25.1050   79.6820   16.4960 N.am  185  ASN185     -0.0877
    110  N         26.6280   74.6540   16.1230 N.3   187  ILE187     -0.1231
    111  CA        26.9400   74.4260   17.5270 C.3   187  ILE187      0.1692
    112  C         25.6960   74.3740   18.3920 C.2   187  ILE187      0.2593
    113  O         24.7150   75.0470   18.1110 O.2   187  ILE187     -0.2718
    114  CB        27.8550   75.5830   18.0540 C.3   187  ILE187      0.0266
    115  CG1       29.2990   75.3780   17.5840 C.3   187  ILE187      0.0019
    116  CG2       27.7050   75.8020   19.5790 C.3   187  ILE187      0.0020
    117  CD1       29.9460   74.1190   18.0960 C.3   187  ILE187      0.0001
    118  N         25.7240   73.5060   19.3930 N.am  188  THR188     -0.1939
    119  CA        24.6530   73.3950   20.3760 C.3   188  THR188      0.2028
    120  C         25.4460   73.1650   21.6540 C.2   188  THR188      0.2642
    121  O         26.6780   73.1760   21.6250 O.2   188  THR188     -0.2714
    122  CB        23.7030   72.1980   20.1460 C.3   188  THR188      0.1808
    123  OG1       24.4380   70.9670   20.1970 O.3   188  THR188     -0.2208
    124  CG2       22.9740   72.3270   18.8280 C.3   188  THR188      0.0379
    125  N         24.7710   72.9140   22.7680 N.am  189  ILE189     -0.1977
    126  CA        25.4720   72.6980   24.0320 C.3   189  ILE189      0.1596
    127  C         26.5330   71.5890   24.0350 C.2   189  ILE189      0.2287
    128  O         27.6930   71.8390   24.3910 O.2   189  ILE189     -0.2864
    129  CB        24.4890   72.4290   25.1840 C.3   189  ILE189      0.0276
    130  CG1       23.4840   73.5710   25.2920 C.3   189  ILE189      0.0022
    131  CG2       25.2430   72.2640   26.5000 C.3   189  ILE189      0.0022
    132  CD1       22.8420   73.6700   26.6450 C.3   189  ILE189      0.0001
    133  N         28.9150   81.2250   15.7650 N.3   248  ILE248     -0.1245
    134  CA        28.4810   81.4990   17.1370 C.3   248  ILE248      0.1561
    135  C         29.5870   82.2910   17.8440 C.2   248  ILE248      0.2260
    136  O         30.7640   81.9720   17.6900 O.2   248  ILE248     -0.2867
    137  CB        28.1230   80.1890   17.9310 C.3   248  ILE248      0.0252
    138  CG1       27.4190   80.5570   19.2410 C.3   248  ILE248      0.0019
    139  CG2       29.3710   79.3390   18.2030 C.3   248  ILE248      0.0019
    140  CD1       26.8460   79.3970   20.0010 C.3   248  ILE248      0.0001
    141  N         28.5580   79.4780   23.9900 N.3   261  HIS261     -0.1241
    142  CA        27.1160   79.2800   23.9840 C.3   261  HIS261      0.1621
    143  C         26.4200   79.9210   25.1730 C.2   261  HIS261      0.2264
    144  O         25.5490   80.7680   24.9900 O.2   261  HIS261     -0.2867
    145  CB        26.7070   77.8020   23.9690 C.3   261  HIS261      0.0745
    146  CG        25.2550   77.5980   24.2910 C.ar  261  HIS261      0.0817
    147  ND1       24.2840   77.4800   23.3130 N.ar  261  HIS261     -0.2268
    148  CD2       24.5900   77.6360   25.4680 C.ar  261  HIS261      0.1154
    149  CE1       23.1000   77.4720   23.8740 C.ar  261  HIS261      0.1986
    150  NE2       23.2380   77.5670   25.1760 N.ar  261  HIS261     -0.2212
@<TRIPOS>BOND
     1    94    95    1
     2    96    95    1
     3    96    97    2
     4   102   103    1
     5    95    98    1
     6   103   104    1
     7   103   106    1
     8   104   105    2
     9    73    72   ar
    10    98    99    1
    11   100    99   ar
    12   106   107    1
    13    99   101   ar
    14    72    74   ar
    15    72    71    1
    16   107   108    2
    17   107   109   am
    18    66    65    2
    19   133   134    1
    20    68    71    1
    21    68    67    1
    22    68    69    1
    23    65    67   am
    24    65    64    1
    25    64    63    1
    26   110   111    1
    27    70    69    2
    28    81    82    2
    29    81    80    1
    30    69    75   am
    31   134   135    1
    32   134   137    1
    33    88    87    2
    34    83    80    1
    35    83    84    1
    36   111   114    1
    37   111   112    1
    38   115   114    1
    39   115   117    1
    40   136   135    2
    41    80    79    1
    42   137   139    1
    43   137   138    1
    44    14    13    2
    45    87    86    1
    46   114   116    1
    47    75    76    1
    48   113   112    2
    49    85    86    1
    50    22    21    2
    51    79    77   am
    52   112   118   am
    53    23    21   am
    54    21    20    1
    55    77    78    2
    56    77    76    1
    57   124   122    1
    58    86    89    1
    59    13    12    1
    60   138   140    1
    61    12    15    1
    62    12    11    1
    63   118   119    1
    64    20    17    1
    65    16    17    1
    66    89    90    1
    67   122   123    1
    68   122   119    1
    69   119   120    1
    70    17    18    1
    71    90    91    1
    72    18    19    2
    73   121   120    2
    74   120   125   am
    75    57    58    2
    76    57    56    1
    77    62    60    1
    78    91    92   ar
    79    91    93   ar
    80    32    33   ar
    81    32    30   ar
    82    59    56    1
    83    59    60    1
    84    33    31   ar
    85    56    55    1
    86   125   126    1
    87    60    61    1
    88   147   149   ar
    89   147   146   ar
    90    30    29   ar
    91    31    29   ar
    92   149   150   ar
    93    51    50    2
    94   145   142    1
    95   145   146    1
    96   142   141    1
    97   142   143    1
    98   126   127    1
    99   126   129    1
   100   127   128    2
   101    55    50   am
   102    29    28    1
   103   146   148   ar
   104    50    49    1
   105    24    25    1
   106    26    25    1
   107    26    27    2
   108     4     3    2
   109   144   143    2
   110   150   148   ar
   111   129   130    1
   112   129   131    1
   113   130   132    1
   114    25    28    1
   115     3     2    1
   116    47    46    2
   117    44    45    1
   118     5     2    1
   119     5     6    1
   120    49    48    1
   121    49    52    1
   122    46    48   am
   123    46    45    1
   124    48    54    1
   125     2     1    1
   126    52    53    1
   127     6     8   ar
   128     6     7   ar
   129     8    10   ar
   130    54    53    1
   131     7     9   ar
   132    41    43   ar
   133    41    39   ar
   134    10     9   ar
   135    43    42   ar
   136    36    35    1
   137    36    37    2
   138    38    39    1
   139    38    35    1
   140    39    40   ar
   141    35    34    1
   142    42    40   ar
