@<TRIPOS>MOLECULE
tmp/1ngwA00.pdb
 97 93 0 0 0
SMALL
GASTEIGER

@<TRIPOS>ATOM
      1  N        113.3950   97.0720   55.0110 N.3    34  ALA34      -0.1245
      2  CA       113.5080   96.1600   53.8740 C.3    34  ALA34       0.1562
      3  C        113.0620   96.7860   52.5550 C.2    34  ALA34       0.2260
      4  O        112.4890   97.8770   52.5200 O.2    34  ALA34      -0.2867
      5  CB       112.7200   94.8690   54.1440 C.3    34  ALA34       0.0290
      6  N        111.4180   95.7080   48.5200 N.3    36  TYR36      -0.1241
      7  CA       110.8130   94.7050   47.6730 C.3    36  TYR36       0.1605
      8  C        110.7270   95.2190   46.2580 C.2    36  TYR36       0.2264
      9  O        110.6400   96.4160   46.0180 O.2    36  TYR36      -0.2867
     10  CB       109.4070   94.3620   48.1580 C.3    36  TYR36       0.0534
     11  CG       109.3190   94.0150   49.6160 C.ar   36  TYR36      -0.0201
     12  CD1      109.4610   94.9930   50.6020 C.ar   36  TYR36      -0.0009
     13  CD2      109.0880   92.7060   50.0190 C.ar   36  TYR36      -0.0009
     14  CE1      109.3700   94.6670   51.9530 C.ar   36  TYR36       0.0417
     15  CE2      109.0000   92.3690   51.3600 C.ar   36  TYR36       0.0417
     16  CZ       109.1390   93.3520   52.3200 C.ar   36  TYR36       0.1957
     17  OH       109.0320   93.0100   53.6440 O.3    36  TYR36      -0.2866
     18  N        111.0040   89.7940   47.7920 N.3    46  LEU46      -0.1245
     19  CA       111.8980   90.3870   48.7740 C.3    46  LEU46       0.1561
     20  C        113.2750   90.5360   48.1550 C.2    46  LEU46       0.2260
     21  O        113.7540   89.6240   47.4910 O.2    46  LEU46      -0.2867
     22  CB       111.9920   89.5180   50.0170 C.3    46  LEU46       0.0270
     23  CG       112.9980   90.0480   51.0300 C.3    46  LEU46       0.0019
     24  CD1      112.7450   91.5220   51.3030 C.3    46  LEU46       0.0001
     25  CD2      112.8910   89.2330   52.3000 C.3    46  LEU46       0.0001
     26  N        116.6160   92.6290   53.3130 N.3    49  TYR49      -0.1241
     27  CA       116.0370   92.7060   54.6360 C.3    49  TYR49       0.1605
     28  C        117.1430   93.2020   55.5480 C.2    49  TYR49       0.2264
     29  O        118.3030   93.2550   55.1480 O.2    49  TYR49      -0.2867
     30  CB       115.5500   91.3370   55.1010 C.3    49  TYR49       0.0534
     31  CG       116.6220   90.2830   55.1290 C.ar   49  TYR49      -0.0201
     32  CD1      117.1300   89.7530   53.9450 C.ar   49  TYR49      -0.0009
     33  CD2      117.1390   89.8140   56.3360 C.ar   49  TYR49      -0.0009
     34  CE1      118.1310   88.7790   53.9580 C.ar   49  TYR49       0.0417
     35  CE2      118.1420   88.8400   56.3620 C.ar   49  TYR49       0.0417
     36  CZ       118.6300   88.3280   55.1700 C.ar   49  TYR49       0.1957
     37  OH       119.6020   87.3580   55.1840 O.3    49  TYR49      -0.2866
     38  N        118.5830   88.8700   50.0090 N.3    55  TYR55      -0.1227
     39  CA       117.9190   87.5870   50.1520 C.3    55  TYR55       0.1736
     40  C        118.6530   86.6780   49.1720 C.2    55  TYR55       0.2596
     41  O        119.1230   87.1330   48.1250 O.2    55  TYR55      -0.2718
     42  CB       116.4410   87.6940   49.7600 C.3    55  TYR55       0.0548
     43  CG       115.6430   86.4380   50.0400 C.ar   55  TYR55      -0.0200
     44  CD1      115.3870   86.0340   51.3430 C.ar   55  TYR55      -0.0009
     45  CD2      115.1610   85.6480   49.0010 C.ar   55  TYR55      -0.0009
     46  CE1      114.6730   84.8800   51.6110 C.ar   55  TYR55       0.0417
     47  CE2      114.4450   84.4890   49.2580 C.ar   55  TYR55       0.0417
     48  CZ       114.2020   84.1100   50.5700 C.ar   55  TYR55       0.1957
     49  OH       113.4780   82.9690   50.8490 O.3    55  TYR55      -0.2866
     50  N        118.7620   85.4000   49.4980 N.am   56  THR56      -0.1953
     51  CA       119.4550   84.4800   48.6090 C.3    56  THR56       0.1897
     52  C        118.8990   84.6170   47.1910 C.2    56  THR56       0.2313
     53  O        117.6890   84.6590   46.9910 O.2    56  THR56      -0.2863
     54  CB       119.2990   83.0140   49.0760 C.3    56  THR56       0.1794
     55  OG1      118.4570   82.3060   48.1610 O.3    56  THR56      -0.2208
     56  CG2      118.6920   82.9540   50.4770 C.3    56  THR56       0.0378
     57  N        110.1090   99.1310   53.2010 N.3    89  GLN89      -0.1245
     58  CA       109.3010   98.6930   54.3360 C.3    89  GLN89       0.1566
     59  C        110.0410   98.8710   55.6460 C.2    89  GLN89       0.2260
     60  O        111.2700   98.8790   55.6840 O.2    89  GLN89      -0.2867
     61  CB       108.9310   97.2270   54.2130 C.3    89  GLN89       0.0367
     62  CG       108.3100   96.6580   55.4790 C.3    89  GLN89       0.0905
     63  CD       108.0820   95.1670   55.3960 C.2    89  GLN89       0.2608
     64  OE1      109.0270   94.3810   55.4400 O.2    89  GLN89      -0.2717
     65  NE2      106.8210   94.7660   55.2710 N.am   89  GLN89      -0.0878
     66  N        110.0190   97.3280   59.6820 N.3    91  TYR91      -0.1241
     67  CA       109.4540   96.3250   60.5590 C.3    91  TYR91       0.1605
     68  C        110.0270   96.2610   61.9670 C.2    91  TYR91       0.2264
     69  O        110.2670   95.1730   62.5090 O.2    91  TYR91      -0.2867
     70  CB       109.5010   94.9370   59.9080 C.3    91  TYR91       0.0534
     71  CG       110.8650   94.3900   59.5800 C.ar   91  TYR91      -0.0201
     72  CD1      111.5620   94.8250   58.4670 C.ar   91  TYR91      -0.0009
     73  CD2      111.4360   93.3930   60.3640 C.ar   91  TYR91      -0.0009
     74  CE1      112.8000   94.2760   58.1370 C.ar   91  TYR91       0.0417
     75  CE2      112.6680   92.8390   60.0460 C.ar   91  TYR91       0.0417
     76  CZ       113.3470   93.2830   58.9330 C.ar   91  TYR91       0.1957
     77  OH       114.5800   92.7430   58.6290 O.3    91  TYR91      -0.2866
     78  N        105.0930   98.3360   65.0940 N.3    94  TYR94      -0.1241
     79  CA       103.7770   98.0920   64.5000 C.3    94  TYR94       0.1605
     80  C        102.9780   99.3810   64.3900 C.2    94  TYR94       0.2264
     81  O        103.0500  100.2500   65.2610 O.2    94  TYR94      -0.2867
     82  CB       102.9750   97.0850   65.3270 C.3    94  TYR94       0.0534
     83  CG       103.5370   95.6920   65.2800 C.ar   94  TYR94      -0.0201
     84  CD1      103.6640   95.0150   64.0740 C.ar   94  TYR94      -0.0009
     85  CD2      103.9660   95.0550   66.4370 C.ar   94  TYR94      -0.0009
     86  CE1      104.2060   93.7360   64.0190 C.ar   94  TYR94       0.0417
     87  CE2      104.5110   93.7740   66.3900 C.ar   94  TYR94       0.0417
     88  CZ       104.6290   93.1260   65.1770 C.ar   94  TYR94       0.1957
     89  OH       105.1950   91.8790   65.1190 O.3    94  TYR94      -0.2866
     90  N        103.4670   97.4540   60.5830 N.3    96  LEU96      -0.1245
     91  CA       104.4920   97.4100   59.5450 C.3    96  LEU96       0.1561
     92  C        104.1090   98.4560   58.5070 C.2    96  LEU96       0.2260
     93  O        102.9520   98.5500   58.1180 O.2    96  LEU96      -0.2867
     94  CB       104.5530   96.0140   58.9180 C.3    96  LEU96       0.0270
     95  CG       105.3690   94.9650   59.6920 C.3    96  LEU96       0.0019
     96  CD1      105.0270   95.0480   61.1470 C.3    96  LEU96       0.0001
     97  CD2      105.1030   93.5540   59.1640 C.3    96  LEU96       0.0001
@<TRIPOS>BOND
     1     9     8    2
     2     8     7    1
     3    53    52    2
     4    52    51    1
     5    21    20    2
     6     7    10    1
     7     7     6    1
     8    18    19    1
     9    41    40    2
    10    20    19    1
    11    10    11    1
    12    55    54    1
    13    51    54    1
    14    51    50    1
    15    19    22    1
    16    45    47   ar
    17    45    43   ar
    18    54    56    1
    19    40    50   am
    20    40    39    1
    21    47    48   ar
    22    11    13   ar
    23    11    12   ar
    24    42    43    1
    25    42    39    1
    26    38    39    1
    27    22    23    1
    28    13    15   ar
    29    43    44   ar
    30    48    49    1
    31    48    46   ar
    32    12    14   ar
    33    23    24    1
    34    23    25    1
    35    44    46   ar
    36    15    16   ar
    37    14    16   ar
    38    16    17    1
    39     4     3    2
    40     3     2    1
    41    57    58    1
    42    26    27    1
    43     2     5    1
    44     2     1    1
    45    32    34   ar
    46    32    31   ar
    47    34    36   ar
    48    61    58    1
    49    61    62    1
    50    58    59    1
    51    27    30    1
    52    27    28    1
    53    30    31    1
    54    31    33   ar
    55    29    28    2
    56    36    37    1
    57    36    35   ar
    58    65    63   am
    59    63    64    2
    60    63    62    1
    61    59    60    2
    62    33    35   ar
    63    93    92    2
    64    74    72   ar
    65    74    76   ar
    66    72    71   ar
    67    92    91    1
    68    77    76    1
    69    94    91    1
    70    94    95    1
    71    76    75   ar
    72    97    95    1
    73    91    90    1
    74    71    70    1
    75    71    73   ar
    76    66    67    1
    77    95    96    1
    78    70    67    1
    79    75    73   ar
    80    67    68    1
    81    68    69    2
    82    86    84   ar
    83    86    88   ar
    84    84    83   ar
    85    80    79    1
    86    80    81    2
    87    79    78    1
    88    79    82    1
    89    89    88    1
    90    88    87   ar
    91    83    82    1
    92    83    85   ar
    93    87    85   ar
