@<TRIPOS>MOLECULE
tmp/1ngxA00.pdb
 115 111 0 0 0
SMALL
GASTEIGER

@<TRIPOS>ATOM
      1  N         42.3890   30.3800   47.1930 N.3    34  ALA34      -0.1245
      2  CA        41.9160   31.6740   47.6780 C.3    34  ALA34       0.1562
      3  C         40.5540   31.4870   48.3510 C.2    34  ALA34       0.2260
      4  O         39.8430   30.5260   48.0650 O.2    34  ALA34      -0.2867
      5  CB        41.8000   32.6650   46.5200 C.3    34  ALA34       0.0290
      6  N         36.8960   33.5520   49.4430 N.3    36  TYR36      -0.1241
      7  CA        36.0740   34.7320   49.2080 C.3    36  TYR36       0.1605
      8  C         34.8770   34.8000   50.1500 C.2    36  TYR36       0.2264
      9  O         34.4020   33.7840   50.6530 O.2    36  TYR36      -0.2867
     10  CB        35.5670   34.7600   47.7620 C.3    36  TYR36       0.0534
     11  CG        36.6670   34.7410   46.7260 C.ar   36  TYR36      -0.0201
     12  CD1       37.3110   33.5520   46.3920 C.ar   36  TYR36      -0.0009
     13  CD2       37.0850   35.9160   46.1030 C.ar   36  TYR36      -0.0009
     14  CE1       38.3470   33.5280   45.4630 C.ar   36  TYR36       0.0417
     15  CE2       38.1220   35.9060   45.1680 C.ar   36  TYR36       0.0417
     16  CZ        38.7480   34.7050   44.8540 C.ar   36  TYR36       0.1957
     17  OH        39.7780   34.6740   43.9340 O.3    36  TYR36      -0.2866
     18  N         31.4260   39.1540   45.4630 N.3    44  PRO44      -0.2116
     19  CA        32.4140   38.4550   46.2900 C.3    44  PRO44       0.1372
     20  C         33.6320   39.3230   46.5890 C.2    44  PRO44       0.2244
     21  O         34.0820   40.0940   45.7390 O.2    44  PRO44      -0.2868
     22  CB        32.7730   37.2380   45.4390 C.3    44  PRO44       0.0268
     23  CG        31.5080   36.9770   44.6740 C.3    44  PRO44       0.0207
     24  CD        31.1100   38.3680   44.2580 C.3    44  PRO44       0.0892
     25  N         37.6660   39.2540   48.1100 N.3    46  LEU46      -0.1245
     26  CA        38.8170   38.3880   48.3750 C.3    46  LEU46       0.1561
     27  C         39.3020   38.5540   49.8100 C.2    46  LEU46       0.2260
     28  O         39.6050   39.6650   50.2450 O.2    46  LEU46      -0.2867
     29  CB        39.9640   38.7150   47.4140 C.3    46  LEU46       0.0270
     30  CG        41.2880   37.9770   47.6250 C.3    46  LEU46       0.0019
     31  CD1       41.0860   36.4750   47.4550 C.3    46  LEU46       0.0001
     32  CD2       42.3130   38.4870   46.6250 C.3    46  LEU46       0.0001
     33  N         44.5800   34.8180   49.9600 N.3    49  TYR49      -0.1241
     34  CA        45.1810   34.3830   48.7060 C.3    49  TYR49       0.1605
     35  C         46.4050   33.5260   49.0240 C.2    49  TYR49       0.2264
     36  O         46.9830   33.6190   50.1140 O.2    49  TYR49      -0.2867
     37  CB        45.5680   35.5670   47.8080 C.3    49  TYR49       0.0534
     38  CG        46.6210   36.4860   48.3690 C.ar   49  TYR49      -0.0201
     39  CD1       46.2800   37.5030   49.2560 C.ar   49  TYR49      -0.0009
     40  CD2       47.9640   36.3420   48.0110 C.ar   49  TYR49      -0.0009
     41  CE1       47.2410   38.3550   49.7750 C.ar   49  TYR49       0.0417
     42  CE2       48.9360   37.1940   48.5270 C.ar   49  TYR49       0.0417
     43  CZ        48.5650   38.1980   49.4090 C.ar   49  TYR49       0.1957
     44  OH        49.5130   39.0480   49.9350 O.3    49  TYR49      -0.2866
     45  N         44.3960   39.4210   52.6400 N.3    55  TYR55      -0.1227
     46  CA        44.4180   40.5700   51.7410 C.3    55  TYR55       0.1736
     47  C         44.4700   41.8120   52.6290 C.2    55  TYR55       0.2596
     48  O         43.9670   41.7960   53.7480 O.2    55  TYR55      -0.2718
     49  CB        43.1500   40.6100   50.8880 C.3    55  TYR55       0.0548
     50  CG        43.2510   41.5430   49.7040 C.ar   55  TYR55      -0.0200
     51  CD1       43.9120   41.1510   48.5430 C.ar   55  TYR55      -0.0009
     52  CD2       42.7160   42.8310   49.7570 C.ar   55  TYR55      -0.0009
     53  CE1       44.0410   42.0140   47.4590 C.ar   55  TYR55       0.0417
     54  CE2       42.8440   43.7080   48.6800 C.ar   55  TYR55       0.0417
     55  CZ        43.5050   43.2910   47.5330 C.ar   55  TYR55       0.1957
     56  OH        43.6250   44.1410   46.4550 O.3    55  TYR55      -0.2866
     57  N         45.0830   42.8810   52.1380 N.am   56  THR56      -0.1953
     58  CA        45.1780   44.1140   52.9140 C.3    56  THR56       0.1897
     59  C         43.8050   44.5300   53.4350 C.2    56  THR56       0.2313
     60  O         42.8310   44.5410   52.6870 O.2    56  THR56      -0.2863
     61  CB        45.7480   45.2630   52.0570 C.3    56  THR56       0.1794
     62  OG1       47.0340   44.8860   51.5490 O.3    56  THR56      -0.2208
     63  CG2       45.8890   46.5290   52.8880 C.3    56  THR56       0.0378
     64  N         38.6590   28.6200   46.1740 N.3    89  GLN89      -0.1245
     65  CA        39.0300   28.5440   44.7500 C.3    89  GLN89       0.1566
     66  C         40.4540   27.9620   44.6650 C.2    89  GLN89       0.2260
     67  O         41.2430   28.2130   45.5620 O.2    89  GLN89      -0.2867
     68  CB        39.0100   29.9540   44.1490 C.3    89  GLN89       0.0367
     69  CG        39.5550   30.0540   42.7280 C.3    89  GLN89       0.0905
     70  CD        39.8340   31.4860   42.3210 C.2    89  GLN89       0.2608
     71  OE1       40.3330   32.2780   43.1180 O.2    89  GLN89      -0.2717
     72  NE2       39.5310   31.8220   41.0710 N.am   89  GLN89      -0.0878
     73  N         42.9580   27.9800   41.6080 N.3    91  TYR91      -0.1241
     74  CA        43.9100   28.4430   40.5820 C.3    91  TYR91       0.1605
     75  C         45.2900   27.7800   40.3170 C.2    91  TYR91       0.2264
     76  O         46.2150   28.4320   39.8320 O.2    91  TYR91      -0.2867
     77  CB        44.0860   29.9600   40.7120 C.3    91  TYR91       0.0534
     78  CG        44.7730   30.4680   41.9580 C.ar   91  TYR91      -0.0201
     79  CD1       46.1180   30.8430   41.9250 C.ar   91  TYR91      -0.0009
     80  CD2       44.0590   30.6760   43.1410 C.ar   91  TYR91      -0.0009
     81  CE1       46.7350   31.4230   43.0290 C.ar   91  TYR91       0.0417
     82  CE2       44.6740   31.2610   44.2630 C.ar   91  TYR91       0.0417
     83  CZ        46.0090   31.6330   44.1890 C.ar   91  TYR91       0.1957
     84  OH        46.6150   32.2500   45.2590 O.3    91  TYR91      -0.2866
     85  N         44.0310   24.4570   35.4170 N.3    94  TYR94      -0.1241
     86  CA        43.0260   25.0420   34.5410 C.3    94  TYR94       0.1605
     87  C         42.0790   23.9360   34.0900 C.2    94  TYR94       0.2264
     88  O         42.5050   22.8250   33.7780 O.2    94  TYR94      -0.2867
     89  CB        43.6940   25.6900   33.3270 C.3    94  TYR94       0.0534
     90  CG        44.3450   27.0160   33.6420 C.ar   94  TYR94      -0.0201
     91  CD1       43.5850   28.1790   33.7380 C.ar   94  TYR94      -0.0009
     92  CD2       45.7170   27.1030   33.8830 C.ar   94  TYR94      -0.0009
     93  CE1       44.1720   29.3970   34.0670 C.ar   94  TYR94       0.0417
     94  CE2       46.3140   28.3170   34.2130 C.ar   94  TYR94       0.0417
     95  CZ        45.5370   29.4580   34.3040 C.ar   94  TYR94       0.1957
     96  OH        46.1180   30.6600   34.6360 O.3    94  TYR94      -0.2866
     97  N         40.1780   27.0640   36.2520 N.3    96  LEU96      -0.1245
     98  CA        40.1050   27.4610   37.6500 C.3    96  LEU96       0.1561
     99  C         38.7430   26.9770   38.1490 C.2    96  LEU96       0.2260
    100  O         37.7470   27.0720   37.4290 O.2    96  LEU96      -0.2867
    101  CB        40.2000   28.9830   37.7590 C.3    96  LEU96       0.0270
    102  CG        41.5770   29.6580   37.8680 C.3    96  LEU96       0.0019
    103  CD1       42.6540   28.8800   37.1310 C.3    96  LEU96       0.0001
    104  CD2       41.4610   31.0740   37.3290 C.3    96  LEU96       0.0001
    105  N         35.8850   26.4690   41.6980 N.3    98  PHE98      -0.1241
    106  CA        35.4380   26.9600   43.0040 C.3    98  PHE98       0.1605
    107  C         34.7310   25.8980   43.8250 C.2    98  PHE98       0.2264
    108  O         34.1640   24.9520   43.2800 O.2    98  PHE98      -0.2867
    109  CB        34.4490   28.1160   42.8170 C.3    98  PHE98       0.0534
    110  CG        35.0330   29.3130   42.1420 C.ar   98  PHE98      -0.0203
    111  CD1       35.6900   30.2940   42.8790 C.ar   98  PHE98      -0.0042
    112  CD2       34.9320   29.4630   40.7610 C.ar   98  PHE98      -0.0042
    113  CE1       36.2380   31.4100   42.2500 C.ar   98  PHE98      -0.0003
    114  CE2       35.4770   30.5740   40.1280 C.ar   98  PHE98      -0.0003
    115  CZ        36.1290   31.5480   40.8720 C.ar   98  PHE98      -0.0000
@<TRIPOS>BOND
     1    89    90    1
     2    89    86    1
     3    90    91   ar
     4    90    92   ar
     5    91    93   ar
     6    88    87    2
     7    92    94   ar
     8    93    95   ar
     9    87    86    1
    10    94    95   ar
    11    95    96    1
    12    86    85    1
    13    97    98    1
    14   103   102    1
    15   104   102    1
    16   100    99    2
    17    98   101    1
    18    98    99    1
    19   101   102    1
    20    76    75    2
    21   114   112   ar
    22   114   115   ar
    23    75    74    1
    24    74    77    1
    25    74    73    1
    26    77    78    1
    27   112   110   ar
    28   115   113   ar
    29    72    70   am
    30   105   106    1
    31    79    78   ar
    32    79    81   ar
    33    78    80   ar
    34   110   109    1
    35   110   111   ar
    36   113   111   ar
    37    70    69    1
    38    70    71    2
    39    69    68    1
    40   109   106    1
    41   106   107    1
    42    81    83   ar
    43    80    82   ar
    44   108   107    2
    45    17    16    1
    46    68    65    1
    47    83    82   ar
    48    83    84    1
    49    24    23    1
    50    24    18    1
    51    66    65    1
    52    66    67    2
    53    23    22    1
    54    65    64    1
    55    16    15   ar
    56    16    14   ar
    57    15    13   ar
    58    22    19    1
    59    14    12   ar
    60    18    19    1
    61    21    20    2
    62    13    11   ar
    63    19    20    1
    64    12    11   ar
    65    56    55    1
    66     5     2    1
    67    32    30    1
    68    11    10    1
    69     1     2    1
    70    29    30    1
    71    29    26    1
    72    31    30    1
    73    53    55   ar
    74    53    51   ar
    75    55    54   ar
    76     2     3    1
    77    10     7    1
    78    37    38    1
    79    37    34    1
    80    40    38   ar
    81    40    42   ar
    82     4     3    2
    83    25    26    1
    84    38    39   ar
    85    26    27    1
    86    42    43   ar
    87    51    50   ar
    88    54    52   ar
    89    34    35    1
    90    34    33    1
    91    35    36    2
    92     7     6    1
    93     7     8    1
    94    39    41   ar
    95    43    41   ar
    96    43    44    1
    97    50    52   ar
    98    50    49    1
    99    27    28    2
   100     8     9    2
   101    49    46    1
   102    62    61    1
   103    46    47    1
   104    46    45    1
   105    61    63    1
   106    61    58    1
   107    57    47   am
   108    57    58    1
   109    47    48    2
   110    60    59    2
   111    58    59    1
