@<TRIPOS>MOLECULE
tmp/1ngxD00.pdb
 125 126 0 0 0
SMALL
GASTEIGER

@<TRIPOS>ATOM
      1  N        -12.0280   -2.4890  -11.6410 N.3    33  TRP33      -0.1241
      2  CA       -11.1340   -1.3770  -11.9510 C.3    33  TRP33       0.1605
      3  C         -9.7580   -1.4770  -11.2980 C.2    33  TRP33       0.2264
      4  O         -9.6370   -1.5330  -10.0770 O.2    33  TRP33      -0.2867
      5  CB       -11.7790   -0.0450  -11.5610 C.3    33  TRP33       0.0550
      6  CG       -12.9070    0.3540  -12.4570 C.ar   33  TRP33       0.0003
      7  CD1      -14.2410    0.3100  -12.1690 C.ar   33  TRP33       0.0946
      8  CD2      -12.8000    0.8460  -13.7980 C.ar   33  TRP33       0.0152
      9  NE1      -14.9740    0.7460  -13.2500 N.ar   33  TRP33      -0.2442
     10  CE2      -14.1140    1.0820  -14.2630 C.ar   33  TRP33       0.0810
     11  CE3      -11.7220    1.1110  -14.6540 C.ar   33  TRP33       0.0012
     12  CZ2      -14.3780    1.5720  -15.5470 C.ar   33  TRP33       0.0191
     13  CZ3      -11.9850    1.5990  -15.9320 C.ar   33  TRP33       0.0001
     14  CH2      -13.3050    1.8240  -16.3640 C.ar   33  TRP33       0.0015
     15  N         -6.1280    0.4110  -11.0240 N.3    35  HIS35      -0.1241
     16  CA        -5.4870    1.7120  -11.2080 C.3    35  HIS35       0.1621
     17  C         -3.9730    1.5750  -11.2810 C.2    35  HIS35       0.2264
     18  O         -3.3990    0.6470  -10.7120 O.2    35  HIS35      -0.2867
     19  CB        -5.8370    2.6370  -10.0370 C.3    35  HIS35       0.0745
     20  CG        -7.2970    2.9530   -9.9230 C.ar   35  HIS35       0.0817
     21  ND1       -7.8260    4.1700  -10.2980 N.ar   35  HIS35      -0.2268
     22  CD2       -8.3380    2.2140   -9.4720 C.ar   35  HIS35       0.1154
     23  CE1       -9.1290    4.1680  -10.0810 C.ar   35  HIS35       0.1986
     24  NE2       -9.4650    2.9930   -9.5790 N.ar   35  HIS35      -0.2212
     25  N         -0.3840    3.6920  -10.6030 N.3    37  VAL37      -0.1245
     26  CA         0.1680    4.8570   -9.9160 C.3    37  VAL37       0.1561
     27  C          1.6800    4.9050  -10.0640 C.2    37  VAL37       0.2260
     28  O          2.3500    3.8730  -10.0500 O.2    37  VAL37      -0.2867
     29  CB        -0.2110    4.8300   -8.4130 C.3    37  VAL37       0.0252
     30  CG1        0.3850    6.0400   -7.6840 C.3    37  VAL37       0.0019
     31  CG2       -1.7360    4.8350   -8.2730 C.3    37  VAL37       0.0019
     32  N         -1.3240    9.7020  -10.2330 N.3    47  TRP47      -0.1241
     33  CA        -2.2630    8.7260  -10.7710 C.3    47  TRP47       0.1605
     34  C         -2.1810    8.7510  -12.2940 C.2    47  TRP47       0.2264
     35  O         -2.2790    9.8090  -12.9080 O.2    47  TRP47      -0.2867
     36  CB        -3.6810    9.0680  -10.3110 C.3    47  TRP47       0.0550
     37  CG        -4.7410    8.1860  -10.8710 C.ar   47  TRP47       0.0003
     38  CD1       -5.0230    6.8980  -10.5080 C.ar   47  TRP47       0.0946
     39  CD2       -5.7030    8.5430  -11.8680 C.ar   47  TRP47       0.0152
     40  NE1       -6.1070    6.4350  -11.2160 N.ar   47  TRP47      -0.2442
     41  CE2       -6.5440    7.4250  -12.0570 C.ar   47  TRP47       0.0810
     42  CE3       -5.9380    9.7050  -12.6190 C.ar   47  TRP47       0.0012
     43  CZ2       -7.6060    7.4320  -12.9660 C.ar   47  TRP47       0.0191
     44  CZ3       -6.9940    9.7120  -13.5210 C.ar   47  TRP47       0.0001
     45  CH2       -7.8160    8.5810  -13.6860 C.ar   47  TRP47       0.0015
     46  N         -6.9030    4.1400  -15.0770 N.3    50  ARG50      -0.1245
     47  CA        -7.5050    2.8890  -14.6330 C.3    50  ARG50       0.1563
     48  C         -8.0440    2.0890  -15.8050 C.2    50  ARG50       0.2260
     49  O         -8.3610    2.6380  -16.8590 O.2    50  ARG50      -0.2867
     50  CB        -8.6550    3.1660  -13.6660 C.3    50  ARG50       0.0307
     51  CG        -9.7620    4.0240  -14.2710 C.3    50  ARG50       0.0489
     52  CD       -10.9890    4.1280  -13.3690 C.3    50  ARG50       0.2205
     53  NE       -12.0890    4.8050  -14.0580 N.pl3  50  ARG50      -0.0865
     54  CZ       -13.3300    4.8960  -13.5940 C.cat  50  ARG50       0.5346
     55  NH1      -13.6500    4.3510  -12.4260 N.pl3  50  ARG50       0.1354
     56  NH2      -14.2550    5.5330  -14.2990 N.pl3  50  ARG50       0.1354
     57  N         -3.2950   -1.4310   -8.8200 N.3    97  THR97      -0.1203
     58  CA        -4.1760   -1.6930   -7.6870 C.3    97  THR97       0.1994
     59  C         -5.2700   -2.6910   -8.0300 C.2    97  THR97       0.2618
     60  O         -5.6310   -2.8470   -9.1940 O.2    97  THR97      -0.2717
     61  CB        -4.8390   -0.3930   -7.1800 C.3    97  THR97       0.1784
     62  OG1       -5.8250    0.0520   -8.1200 O.3    97  THR97      -0.2211
     63  CG2       -3.7950    0.7000   -7.0210 C.3    97  THR97       0.0376
     64  N         -5.7890   -3.3620   -7.0040 N.am   98  ARG98      -0.1965
     65  CA        -6.8460   -4.3540   -7.1700 C.3    98  ARG98       0.1729
     66  C         -7.9320   -4.1070   -6.1160 C.2    98  ARG98       0.2616
     67  O         -7.6340   -3.8240   -4.9540 O.2    98  ARG98      -0.2715
     68  CB        -6.2630   -5.7600   -7.0130 C.3    98  ARG98       0.0348
     69  CG        -5.1520   -6.1000   -8.0080 C.3    98  ARG98       0.0492
     70  CD        -4.6140   -7.5060   -7.7540 C.3    98  ARG98       0.2205
     71  NE        -3.6280   -7.9340   -8.7430 N.pl3  98  ARG98      -0.0865
     72  CZ        -2.3830   -7.4720   -8.8230 C.cat  98  ARG98       0.5346
     73  NH1       -1.9520   -6.5510   -7.9730 N.pl3  98  ARG98       0.1354
     74  NH2       -1.5580   -7.9460   -9.7450 N.pl3  98  ARG98       0.1354
     75  N         -9.1940   -4.2140   -6.5160 N.am   99  ARG99      -0.1977
     76  CA       -10.2880   -3.9610   -5.5820 C.3    99  ARG99       0.1597
     77  C        -10.3920   -4.9600   -4.4310 C.2    99  ARG99       0.2287
     78  O        -10.9460   -4.6340   -3.3790 O.2    99  ARG99      -0.2864
     79  CB       -11.6220   -3.9090   -6.3270 C.3    99  ARG99       0.0334
     80  CG       -11.9960   -5.2080   -7.0170 C.3    99  ARG99       0.0492
     81  CD       -13.3930   -5.1300   -7.6030 C.3    99  ARG99       0.2205
     82  NE       -14.4010   -4.9310   -6.5660 N.pl3  99  ARG99      -0.0865
     83  CZ       -15.6970   -4.7630   -6.8080 C.cat  99  ARG99       0.5346
     84  NH1      -16.1470   -4.7690   -8.0540 N.pl3  99  ARG99       0.1354
     85  NH2      -16.5430   -4.5900   -5.8020 N.pl3  99  ARG99       0.1354
     86  N         -7.9230   -6.3250   -2.5390 N.3   101  SER101     -0.1202
     87  CA        -6.6650   -6.3660   -1.8030 C.3   101  SER101      0.2020
     88  C         -6.4220   -4.9790   -1.2200 C.2   101  SER101      0.2619
     89  O         -6.4680   -3.9900   -1.9450 O.2   101  SER101     -0.2717
     90  CB        -5.5120   -6.7410   -2.7300 C.3   101  SER101      0.2103
     91  OG        -4.2770   -6.6630   -2.0420 O.3   101  SER101     -0.2182
     92  N         -6.1700   -4.9060    0.0840 N.am  102  ASP102     -0.1959
     93  CA        -5.9360   -3.6160    0.7320 C.3   102  ASP102      0.1840
     94  C         -4.5380   -3.0800    0.4460 C.2   102  ASP102      0.2622
     95  O         -4.2400   -1.9220    0.7340 O.2   102  ASP102     -0.2715
     96  CB        -6.1590   -3.7270    2.2430 C.3   102  ASP102      0.1450
     97  CG        -5.3270   -4.8170    2.8730 C.2   102  ASP102      0.3671
     98  OD1       -5.3350   -5.9450    2.3430 O.co2 102  ASP102     -0.2456
     99  OD2       -4.6730   -4.5500    3.9030 O.co2 102  ASP102     -0.2456
    100  N         -3.6840   -3.9290   -0.1170 N.am  103  TYR103     -0.1960
    101  CA        -2.3270   -3.5220   -0.4710 C.3   103  TYR103      0.1771
    102  C         -2.2470   -3.3680   -1.9860 C.2   103  TYR103      0.2619
    103  O         -2.8420   -4.1530   -2.7340 O.2   103  TYR103     -0.2715
    104  CB        -1.3020   -4.5840   -0.0520 C.3   103  TYR103      0.0574
    105  CG        -0.9950   -4.6560    1.4270 C.ar  103  TYR103     -0.0198
    106  CD1        0.0080   -3.8670    1.9920 C.ar  103  TYR103     -0.0009
    107  CD2       -1.6890   -5.5360    2.2580 C.ar  103  TYR103     -0.0009
    108  CE1        0.3180   -3.9610    3.3540 C.ar  103  TYR103      0.0417
    109  CE2       -1.3880   -5.6320    3.6180 C.ar  103  TYR103      0.0417
    110  CZ        -0.3860   -4.8450    4.1570 C.ar  103  TYR103      0.1957
    111  OH        -0.0920   -4.9480    5.5010 O.3   103  TYR103     -0.2866
    112  N         -1.5260   -2.3560   -2.4460 N.am  104  TRP104     -0.1974
    113  CA        -1.3480   -2.1830   -3.8730 C.3   104  TRP104      0.1640
    114  C         -0.4120   -3.3030   -4.3010 C.2   104  TRP104      0.2290
    115  O          0.2110   -3.9500   -3.4570 O.2   104  TRP104     -0.2864
    116  CB        -0.6970   -0.8360   -4.1740 C.3   104  TRP104      0.0576
    117  CG        -1.5950    0.3370   -3.9400 C.ar  104  TRP104      0.0006
    118  CD1       -2.8960    0.3060   -3.5270 C.ar  104  TRP104      0.0946
    119  CD2       -1.2560    1.7200   -4.1020 C.ar  104  TRP104      0.0152
    120  NE1       -3.3890    1.5850   -3.4180 N.ar  104  TRP104     -0.2442
    121  CE2       -2.4040    2.4730   -3.7640 C.ar  104  TRP104      0.0810
    122  CE3       -0.0950    2.3960   -4.5020 C.ar  104  TRP104      0.0012
    123  CZ2       -2.4260    3.8720   -3.8090 C.ar  104  TRP104      0.0191
    124  CZ3       -0.1160    3.7950   -4.5470 C.ar  104  TRP104      0.0001
    125  CH2       -1.2770    4.5120   -4.2010 C.ar  104  TRP104      0.0015
@<TRIPOS>BOND
     1    49    48    2
     2    14    13   ar
     3    14    12   ar
     4    13    11   ar
     5    48    47    1
     6    12    10   ar
     7    46    47    1
     8    11     8   ar
     9    47    50    1
    10    56    54    1
    11    51    50    1
    12    51    52    1
    13    10     8   ar
    14    10     9   ar
    15    53    54    2
    16    53    52    1
    17     8     6   ar
    18    45    44   ar
    19    45    43   ar
    20    54    55    1
    21    44    42   ar
    22     9     7   ar
    23    43    41   ar
    24    35    34    2
    25    42    39   ar
    26     6     7   ar
    27     6     5    1
    28    34    33    1
    29    41    39   ar
    30    41    40   ar
    31     2     1    1
    32     2     5    1
    33     2     3    1
    34    39    37   ar
    35     3     4    2
    36    17    16    1
    37    17    18    2
    38    40    38   ar
    39    16    15    1
    40    16    19    1
    41    37    38   ar
    42    37    36    1
    43    33    36    1
    44    33    32    1
    45    25    26    1
    46    21    23   ar
    47    21    20   ar
    48    23    24   ar
    49    27    28    2
    50    27    26    1
    51    19    20    1
    52    20    22   ar
    53    26    29    1
    54    74    72    1
    55    24    22   ar
    56    60    59    2
    57    72    71    2
    58    72    73    1
    59    57    58    1
    60    71    70    1
    61    29    31    1
    62    29    30    1
    63    62    61    1
    64    84    83    1
    65    59    58    1
    66    59    64   am
    67    69    70    1
    68    69    68    1
    69    58    61    1
    70    81    80    1
    71    81    82    1
    72    61    63    1
    73    65    68    1
    74    65    64    1
    75    65    66    1
    76    80    79    1
    77    83    82    2
    78    83    85    1
    79    75    66   am
    80    75    76    1
    81    79    76    1
    82    66    67    2
    83    76    77    1
    84   124   122   ar
    85   124   125   ar
    86   122   119   ar
    87    77    78    2
    88   114   113    1
    89   114   115    2
    90   125   123   ar
    91   116   117    1
    92   116   113    1
    93   119   117   ar
    94   119   121   ar
    95   117   118   ar
    96   113   112    1
    97   123   121   ar
    98   121   120   ar
    99   118   120   ar
   100   103   102    2
   101    90    91    1
   102    90    87    1
   103    86    87    1
   104   112   102   am
   105   102   101    1
   106    89    88    2
   107    87    88    1
   108    88    92   am
   109   101   100    1
   110   101   104    1
   111   100    94   am
   112   104   105    1
   113    92    93    1
   114    94    93    1
   115    94    95    2
   116    93    96    1
   117   105   106   ar
   118   105   107   ar
   119   106   108   ar
   120    96    97    1
   121   107   109   ar
   122    98    97   ar
   123    97    99   ar
   124   108   110   ar
   125   109   110   ar
   126   110   111    1
