@<TRIPOS>MOLECULE
tmp/1nh0B00.pdb
 82 76 0 0 0
SMALL
GASTEIGER

@<TRIPOS>ATOM
      1  N         25.8450   -0.8080   87.6050 N.3     8  ARG8       -0.1245
      2  CA        25.0540   -0.3210   86.4610 C.3     8  ARG8        0.1563
      3  C         25.1820   -1.2690   85.2720 C.2     8  ARG8        0.2260
      4  O         26.3350   -1.6640   84.9490 O.2     8  ARG8       -0.2867
      5  CB        25.5220    1.0640   86.0620 C.3     8  ARG8        0.0307
      6  CG        25.2280    2.1520   87.0490 C.3     8  ARG8        0.0489
      7  CD        25.6310    3.5120   86.5820 C.3     8  ARG8        0.2205
      8  NE        25.2480    4.5260   87.5540 N.pl3   8  ARG8       -0.0865
      9  CZ        25.5020    5.8180   87.4050 C.cat   8  ARG8        0.5346
     10  NH1       26.2160    6.2330   86.3390 N.pl3   8  ARG8        0.1354
     11  NH2       25.0570    6.6600   88.3110 N.pl3   8  ARG8        0.1354
     12  N         23.9210    2.3740   78.9320 N.3    23  LEU23      -0.1245
     13  CA        23.1960    1.7810   80.0620 C.3    23  LEU23       0.1561
     14  C         21.9150    1.1540   79.5530 C.2    23  LEU23       0.2260
     15  O         21.0820    1.8520   78.9440 O.2    23  LEU23      -0.2867
     16  CB        22.9390    2.9530   81.0380 C.3    23  LEU23       0.0270
     17  CG        22.2490    2.6070   82.3320 C.3    23  LEU23       0.0019
     18  CD1       23.1840    1.7690   83.1660 C.3    23  LEU23       0.0001
     19  CD2       21.8660    3.9300   83.0340 C.3    23  LEU23       0.0001
     20  N         18.3890    0.4980   80.1350 N.3    25  ASP25      -0.1239
     21  CA        17.5090    1.2770   81.0200 C.3    25  ASP25       0.1674
     22  C         16.0390    0.9510   80.7720 C.2    25  ASP25       0.2266
     23  O         15.3850    1.4920   79.8820 O.2    25  ASP25      -0.2867
     24  CB        17.7460    2.7770   80.8360 C.3    25  ASP25       0.1410
     25  CG        16.9780    3.6490   81.7480 C.2    25  ASP25       0.3668
     26  OD1       16.1450    3.1090   82.5210 O.co2  25  ASP25      -0.2456
     27  OD2       17.1470    4.8680   81.6570 O.co2  25  ASP25      -0.2456
     28  N         13.5770    1.7660   82.4840 N.3    27  GLY27      -0.1210
     29  CA        12.7600    2.8880   82.8050 C.3    27  GLY27       0.1956
     30  C         12.6380    3.9530   81.7500 C.2    27  GLY27       0.2612
     31  O         11.9100    4.9490   81.9510 O.2    27  GLY27      -0.2717
     32  N         13.3640    3.8190   80.6350 N.am   28  ALA28      -0.1965
     33  CA        13.3390    4.7920   79.5570 C.3    28  ALA28       0.1728
     34  C         12.4940    4.2630   78.4070 C.2    28  ALA28       0.2616
     35  O         12.7080    3.1620   77.9280 O.2    28  ALA28      -0.2715
     36  CB        14.7450    5.0470   79.0550 C.3    28  ALA28       0.0334
     37  N         11.5280    5.0650   77.9420 N.am   29  ASP29      -0.1971
     38  CA        10.7150    4.6270   76.8000 C.3    29  ASP29       0.1709
     39  C         11.5450    4.5280   75.5210 C.2    29  ASP29       0.2293
     40  O         11.3330    3.6300   74.7290 O.2    29  ASP29      -0.2864
     41  CB         9.5860    5.6190   76.5660 C.3    29  ASP29       0.1436
     42  CG         8.5580    5.7480   77.6470 C.2    29  ASP29       0.3671
     43  OD1        8.4080    4.8310   78.5180 O.co2  29  ASP29      -0.2456
     44  OD2        7.8200    6.7450   77.6400 O.co2  29  ASP29      -0.2456
     45  N         11.1230   14.0210   78.9750 N.3    48  GLY48      -0.1210
     46  CA        11.1200   14.2760   80.4000 C.3    48  GLY48       0.1956
     47  C         11.6430   13.0930   81.2000 C.2    48  GLY48       0.2612
     48  O         11.4360   11.9380   80.9330 O.2    48  GLY48      -0.2717
     49  N         12.3680   13.4550   82.2280 N.am   49  GLY49      -0.1942
     50  CA        13.0250   12.5550   83.1310 C.3    49  GLY49       0.2014
     51  C         12.6620   12.9360   84.5540 C.2    49  GLY49       0.2638
     52  O         11.8220   13.7500   84.8310 O.2    49  GLY49      -0.2714
     53  N         13.4280   12.4070   85.5000 N.am   50  ILE50      -0.1977
     54  CA        13.1570   12.6560   86.8500 C.3    50  ILE50       0.1596
     55  C         13.2390   14.0880   87.2350 C.2    50  ILE50       0.2287
     56  O         12.5810   14.5180   88.1710 O.2    50  ILE50      -0.2864
     57  CB        14.0610   11.7820   87.7240 C.3    50  ILE50       0.0276
     58  CG1       13.4500   11.5810   89.0960 C.3    50  ILE50       0.0022
     59  CG2       15.5040   12.1930   87.7000 C.3    50  ILE50       0.0022
     60  CD1       14.0350   10.3780   89.8290 C.3    50  ILE50       0.0001
     61  N         22.9930   12.6150   80.8940 N.3    81  PRO81      -0.2102
     62  CA        24.2060   12.3880   81.6900 C.3    81  PRO81       0.1504
     63  C         24.9760   11.1370   81.2330 C.2    81  PRO81       0.2575
     64  O         26.1740   11.0530   81.4550 O.2    81  PRO81      -0.2718
     65  CB        23.7240   12.2580   83.1210 C.3    81  PRO81       0.0282
     66  CG        22.3260   12.7420   83.1580 C.3    81  PRO81       0.0208
     67  CD        21.7830   12.6410   81.7420 C.3    81  PRO81       0.0893
     68  N         24.3120   10.1400   80.6710 N.am   82  VAL82      -0.1980
     69  CA        24.8770    8.8470   80.2970 C.3    82  VAL82       0.1595
     70  C         24.1000    8.3870   79.0620 C.2    82  VAL82       0.2287
     71  O         22.9110    8.6250   78.8980 O.2    82  VAL82      -0.2864
     72  CB        24.6020    7.9210   81.5180 C.3    82  VAL82       0.0276
     73  CG1       24.8500    6.4410   81.3050 C.3    82  VAL82       0.0022
     74  CG2       25.4380    8.2740   82.7750 C.3    82  VAL82       0.0022
     75  N         21.8520    6.0120   77.1710 N.3    84  ILE84      -0.1245
     76  CA        20.7850    5.1200   77.6590 C.3    84  ILE84       0.1561
     77  C         20.1330    4.4030   76.4840 C.2    84  ILE84       0.2260
     78  O         19.7050    5.0090   75.5130 O.2    84  ILE84      -0.2867
     79  CB        19.6950    6.0820   78.2230 C.3    84  ILE84       0.0252
     80  CG1       20.2500    6.7520   79.4910 C.3    84  ILE84       0.0019
     81  CG2       18.3930    5.3450   78.4360 C.3    84  ILE84       0.0019
     82  CD1       19.4200    7.8860   80.0190 C.3    84  ILE84       0.0001
@<TRIPOS>BOND
     1    40    39    2
     2    78    77    2
     3    39    38    1
     4    77    76    1
     5    41    38    1
     6    41    42    1
     7    38    37    1
     8    75    76    1
     9    44    42   ar
    10    42    43   ar
    11    76    79    1
    12    35    34    2
    13    37    34   am
    14    79    81    1
    15    79    80    1
    16    34    33    1
    17    71    70    2
    18    12    13    1
    19    15    14    2
    20    45    46    1
    21    36    33    1
    22    70    69    1
    23    80    82    1
    24    14    13    1
    25    33    32    1
    26    23    22    2
    27    13    16    1
    28    20    21    1
    29    69    68    1
    30    69    72    1
    31    46    47    1
    32    32    30   am
    33    68    63   am
    34    22    21    1
    35    24    21    1
    36    24    25    1
    37    61    62    1
    38    61    67    1
    39    48    47    2
    40    16    17    1
    41    47    49   am
    42    63    64    2
    43    63    62    1
    44    73    72    1
    45    72    74    1
    46    27    25   ar
    47    62    65    1
    48    67    66    1
    49    25    26   ar
    50    30    31    2
    51    30    29    1
    52    49    50    1
    53    17    19    1
    54    17    18    1
    55    28    29    1
    56    65    66    1
    57    50    51    1
    58    51    52    2
    59    51    53   am
    60     4     3    2
    61     3     2    1
    62    53    54    1
    63     5     2    1
    64     5     6    1
    65    10     9    1
    66     2     1    1
    67     7     6    1
    68     7     8    1
    69    54    55    1
    70    54    57    1
    71    55    56    2
    72     9     8    2
    73     9    11    1
    74    59    57    1
    75    57    58    1
    76    58    60    1
