@<TRIPOS>MOLECULE
tmp/1nh8A00.pdb
 111 107 0 0 0
SMALL
GASTEIGER

@<TRIPOS>ATOM
      1  N         42.8490   36.1240   51.5260 N.3    11  ALA11      -0.1231
      2  CA        43.3370   36.7730   52.7330 C.3    11  ALA11       0.1694
      3  C         43.0210   36.0760   54.0540 C.2    11  ALA11       0.2591
      4  O         43.6390   36.3860   55.0580 O.2    11  ALA11      -0.2718
      5  CB        42.8830   38.2180   52.7700 C.3    11  ALA11       0.0304
      6  N         42.0660   35.1490   54.0580 N.am   12  LEU12      -0.1980
      7  CA        41.7260   34.4520   55.2930 C.3    12  LEU12       0.1596
      8  C         42.5270   33.1800   55.4690 C.2    12  LEU12       0.2287
      9  O         42.5770   32.6310   56.5550 O.2    12  LEU12      -0.2864
     10  CB        40.2080   34.1060   55.3620 C.3    12  LEU12       0.0297
     11  CG        39.1770   35.2330   55.3270 C.3    12  LEU12       0.0022
     12  CD1       37.8040   34.7500   55.8220 C.3    12  LEU12       0.0001
     13  CD2       39.6350   36.3680   56.2020 C.3    12  LEU12       0.0001
     14  N         30.5240   37.7280   55.9260 N.3    70  ASP70      -0.1225
     15  CA        29.8580   38.1100   54.6910 C.3    70  ASP70       0.1805
     16  C         29.6080   36.9310   53.7470 C.2    70  ASP70       0.2597
     17  O         28.5290   36.8190   53.1500 O.2    70  ASP70      -0.2718
     18  CB        30.5720   39.2720   53.9880 C.3    70  ASP70       0.1424
     19  CG        32.0590   39.0620   53.8860 C.2    70  ASP70       0.3668
     20  OD1       32.7970   40.0450   53.6070 O.co2  70  ASP70      -0.2456
     21  OD2       32.5700   37.9630   54.0710 O.co2  70  ASP70      -0.2456
     22  N         30.5890   36.0400   53.6210 N.am   71  LEU71      -0.1979
     23  CA        30.4240   34.8740   52.7660 C.3    71  LEU71       0.1596
     24  C         29.3670   33.9230   53.3240 C.2    71  LEU71       0.2287
     25  O         28.6590   33.2520   52.5670 O.2    71  LEU71      -0.2864
     26  CB        31.7480   34.1430   52.6260 C.3    71  LEU71       0.0297
     27  CG        32.8130   34.9550   51.8320 C.3    71  LEU71       0.0022
     28  CD1       34.1990   34.3130   52.0080 C.3    71  LEU71       0.0001
     29  CD2       32.4160   35.0290   50.3230 C.3    71  LEU71       0.0001
     30  N         40.3520   39.4070   59.4970 N.3    88  GLY88      -0.1210
     31  CA        39.4320   39.4530   58.3670 C.3    88  GLY88       0.1956
     32  C         38.3000   40.4700   58.5240 C.2    88  GLY88       0.2613
     33  O         37.2780   40.3790   57.8320 O.2    88  GLY88      -0.2717
     34  N         38.4700   41.4440   59.4150 N.am   89  SER89      -0.1938
     35  CA        37.4340   42.4570   59.5810 C.3    89  SER89       0.2055
     36  C         37.2980   43.3400   58.3610 C.2    89  SER89       0.2643
     37  O         38.2940   43.7950   57.7850 O.2    89  SER89      -0.2714
     38  CB        37.6990   43.3390   60.8030 C.3    89  SER89       0.2130
     39  OG        37.8150   42.5730   61.9860 O.3    89  SER89      -0.2179
     40  N         36.0580   43.6240   57.9770 N.am   90  SER90      -0.1949
     41  CA        35.7970   44.5230   56.8640 C.3    90  SER90       0.1924
     42  C         34.3610   44.9850   56.9560 C.2    90  SER90       0.2314
     43  O         33.5960   44.4320   57.7310 O.2    90  SER90      -0.2863
     44  CB        35.9940   43.7970   55.5280 C.3    90  SER90       0.2116
     45  OG        35.1290   42.6680   55.4190 O.3    90  SER90      -0.2180
     46  N         28.4620   39.2720   45.8470 N.3   116  TYR116     -0.1241
     47  CA        27.6730   38.7170   46.9540 C.3   116  TYR116      0.1605
     48  C         26.2020   39.0830   46.7120 C.2   116  TYR116      0.2264
     49  O         25.5930   39.8370   47.4740 O.2   116  TYR116     -0.2867
     50  CB        28.1230   39.3680   48.2790 C.3   116  TYR116      0.0534
     51  CG        29.5610   39.1190   48.6620 C.ar  116  TYR116     -0.0201
     52  CD1       30.6180   39.6520   47.9220 C.ar  116  TYR116     -0.0009
     53  CD2       29.8640   38.4120   49.8200 C.ar  116  TYR116     -0.0009
     54  CE1       31.9540   39.4420   48.3320 C.ar  116  TYR116      0.0417
     55  CE2       31.1840   38.1840   50.2190 C.ar  116  TYR116      0.0417
     56  CZ        32.2060   38.6880   49.4790 C.ar  116  TYR116      0.1957
     57  OH        33.4740   38.4270   49.9250 O.3   116  TYR116     -0.2866
     58  N         33.0780   44.5380   49.5380 N.3   155  VAL155     -0.1231
     59  CA        33.8620   44.6020   50.7390 C.3   155  VAL155      0.1692
     60  C         34.6870   45.8810   50.6950 C.2   155  VAL155      0.2592
     61  O         35.3410   46.1950   49.6840 O.2   155  VAL155     -0.2718
     62  CB        34.8320   43.4100   50.7900 C.3   155  VAL155      0.0266
     63  CG1       35.8140   43.5350   51.9520 C.3   155  VAL155      0.0020
     64  CG2       34.0450   42.1180   50.8750 C.3   155  VAL155      0.0020
     65  N         34.6780   46.6080   51.8020 N.am  156  VAL156     -0.1966
     66  CA        35.5420   47.7550   51.9210 C.3   156  VAL156      0.1727
     67  C         36.5060   47.5460   53.0960 C.2   156  VAL156      0.2617
     68  O         36.1020   47.3560   54.2620 O.2   156  VAL156     -0.2715
     69  CB        34.7470   49.0940   51.9980 C.3   156  VAL156      0.0290
     70  CG1       35.6720   50.2760   52.2820 C.3   156  VAL156      0.0023
     71  CG2       33.9360   49.3010   50.6960 C.3   156  VAL156      0.0023
     72  N         37.7870   47.5060   52.7580 N.am  157  GLY157     -0.1940
     73  CA        38.8410   47.3870   53.7370 C.3   157  GLY157      0.2014
     74  C         39.3050   48.7950   54.0130 C.2   157  GLY157      0.2640
     75  O         38.6100   49.5480   54.6950 O.2   157  GLY157     -0.2714
     76  N         40.4520   49.1620   53.4510 N.am  158  SER158     -0.1935
     77  CA        41.0180   50.4940   53.6320 C.3   158  SER158      0.2055
     78  C         40.2070   51.5670   52.9050 C.2   158  SER158      0.2644
     79  O         40.2750   52.7490   53.2490 O.2   158  SER158     -0.2714
     80  CB        42.4440   50.5230   53.0870 C.3   158  SER158      0.2130
     81  OG        42.4590   50.0810   51.7320 O.3   158  SER158     -0.2179
     82  N         39.4620   51.1510   51.8870 N.am  159  GLY159     -0.1939
     83  CA        38.7320   52.0840   51.0420 C.3   159  GLY159      0.2014
     84  C         39.5140   52.4780   49.7860 C.2   159  GLY159      0.2639
     85  O         39.0120   53.2320   48.9420 O.2   159  GLY159     -0.2714
     86  N         40.7320   51.9540   49.6590 N.am  160  ARG160     -0.1963
     87  CA        41.6190   52.2650   48.5340 C.3   160  ARG160      0.1729
     88  C         41.0440   51.8920   47.1690 C.2   160  ARG160      0.2617
     89  O         41.1460   52.6560   46.2090 O.2   160  ARG160     -0.2715
     90  CB        42.9780   51.5740   48.7220 C.3   160  ARG160      0.0348
     91  CG        43.9950   52.3440   49.5700 C.3   160  ARG160      0.0492
     92  CD        45.2660   52.7710   48.8020 C.3   160  ARG160      0.2205
     93  NE        45.5450   51.8690   47.6810 N.pl3 160  ARG160     -0.0865
     94  CZ        46.7000   51.2540   47.4450 C.cat 160  ARG160      0.5346
     95  NH1       47.7610   51.4280   48.2400 N.pl3 160  ARG160      0.1354
     96  NH2       46.7940   50.4550   46.3860 N.pl3 160  ARG160      0.1354
     97  N         40.4420   50.7150   47.0820 N.am  161  THR161     -0.1937
     98  CA        39.8940   50.2410   45.8270 C.3   161  THR161      0.2028
     99  C         38.7990   51.1790   45.2950 C.2   161  THR161      0.2642
    100  O         38.7480   51.4590   44.0900 O.2   161  THR161     -0.2714
    101  CB        39.3510   48.8120   46.0090 C.3   161  THR161      0.1808
    102  OG1       40.4470   47.9100   46.2690 O.3   161  THR161     -0.2208
    103  CG2       38.7420   48.2970   44.7120 C.3   161  THR161      0.0379
    104  N         37.9290   51.6600   46.1840 N.am  162  LEU162     -0.1977
    105  CA        36.8470   52.5550   45.7570 C.3   162  LEU162      0.1596
    106  C         37.4190   53.8490   45.1930 C.2   162  LEU162      0.2287
    107  O         37.0310   54.3050   44.1170 O.2   162  LEU162     -0.2864
    108  CB        35.9010   52.8840   46.9100 C.3   162  LEU162      0.0297
    109  CG        35.0230   51.7720   47.4550 C.3   162  LEU162      0.0022
    110  CD1       33.9600   52.3480   48.4000 C.3   162  LEU162      0.0001
    111  CD2       34.3850   50.9840   46.3090 C.3   162  LEU162      0.0001
@<TRIPOS>BOND
     1   100    99    2
     2   107   106    2
     3   103   101    1
     4   106   105    1
     5    99    98    1
     6    99   104   am
     7   105   104    1
     8   105   108    1
     9    98   101    1
    10    98    97    1
    11    46    47    1
    12   101   102    1
    13    89    88    2
    14   111   109    1
    15    96    94    1
    16    48    47    1
    17    48    49    2
    18   108   109    1
    19    47    50    1
    20    97    88   am
    21    88    87    1
    22    94    93    2
    23    94    95    1
    24   109   110    1
    25    93    92    1
    26    52    54   ar
    27    52    51   ar
    28    50    51    1
    29    54    56   ar
    30    87    90    1
    31    87    86    1
    32    51    53   ar
    33    90    91    1
    34    92    91    1
    35    85    84    2
    36    56    57    1
    37    56    55   ar
    38    58    59    1
    39    86    84   am
    40    61    60    2
    41    84    83    1
    42    53    55   ar
    43    29    27    1
    44    60    59    1
    45    60    65   am
    46    71    69    1
    47    59    62    1
    48    62    64    1
    49    62    63    1
    50    83    82    1
    51     1     2    1
    52    81    80    1
    53    65    66    1
    54    27    28    1
    55    27    26    1
    56    82    78   am
    57    66    69    1
    58    66    67    1
    59    69    70    1
    60    25    24    2
    61    26    23    1
    62     2     5    1
    63     2     3    1
    64    72    67   am
    65    72    73    1
    66    23    24    1
    67    23    22    1
    68    78    79    2
    69    78    77    1
    70    80    77    1
    71    67    68    2
    72    17    16    2
    73    76    77    1
    74    76    74   am
    75    20    19   ar
    76    22    16   am
    77    73    74    1
    78    16    15    1
    79    19    18    1
    80    19    21   ar
    81    18    15    1
    82    74    75    2
    83     3     6   am
    84     3     4    2
    85     6     7    1
    86    15    14    1
    87     7    10    1
    88     7     8    1
    89    11    10    1
    90    11    12    1
    91    11    13    1
    92    45    44    1
    93     8     9    2
    94    44    41    1
    95    41    42    1
    96    41    40    1
    97    42    43    2
    98    37    36    2
    99    33    32    2
   100    40    36   am
   101    36    35    1
   102    31    32    1
   103    31    30    1
   104    32    34   am
   105    34    35    1
   106    35    38    1
   107    38    39    1
