@<TRIPOS>MOLECULE
tmp/1nhbA01.pdb
 116 107 0 0 0
SMALL
GASTEIGER

@<TRIPOS>ATOM
      1  N         24.4660    6.9700   12.1890 N.3    78  ILE78      -0.1245
      2  CA        24.1080    6.3200   10.9520 C.3    78  ILE78       0.1561
      3  C         22.9340    5.3760   11.1870 C.2    78  ILE78       0.2260
      4  O         21.9520    5.3790   10.4470 O.2    78  ILE78      -0.2867
      5  CB        25.2920    5.4860   10.4160 C.3    78  ILE78       0.0252
      6  CG1       26.3140    6.4120    9.7010 C.3    78  ILE78       0.0019
      7  CG2       24.7720    4.4310    9.4090 C.3    78  ILE78       0.0019
      8  CD1       27.6940    5.7640    9.5210 C.3    78  ILE78       0.0001
      9  N         20.2360    6.7900    5.9570 N.3    84  LEU84      -0.1245
     10  CA        21.5450    6.1530    5.9190 C.3    84  LEU84       0.1561
     11  C         21.5780    4.6930    6.2500 C.2    84  LEU84       0.2260
     12  O         22.3580    3.9710    5.6970 O.2    84  LEU84      -0.2867
     13  CB        22.5140    6.8860    6.8730 C.3    84  LEU84       0.0270
     14  CG        22.6800    8.3740    6.5620 C.3    84  LEU84       0.0019
     15  CD1       23.5360    9.0100    7.6440 C.3    84  LEU84       0.0001
     16  CD2       23.3460    8.5820    5.2000 C.3    84  LEU84       0.0001
     17  N         21.4530    1.9650    3.5520 N.3    87  VAL87      -0.1231
     18  CA        22.6390    1.8760    2.7290 C.3    87  VAL87       0.1692
     19  C         23.7910    1.1890    3.4610 C.2    87  VAL87       0.2592
     20  O         24.4860    0.2890    2.9760 O.2    87  VAL87      -0.2718
     21  CB        23.0670    3.2610    2.1870 C.3    87  VAL87       0.0266
     22  CG1       24.2010    3.1100    1.1610 C.3    87  VAL87       0.0020
     23  CG2       21.8800    3.9910    1.5580 C.3    87  VAL87       0.0020
     24  N         23.9890    1.6720    4.6690 N.am   88  TYR88      -0.1976
     25  CA        25.0590    1.1790    5.5020 C.3    88  TYR88       0.1639
     26  C         24.9510   -0.3270    5.6980 C.2    88  TYR88       0.2290
     27  O         25.9270   -1.0610    5.5800 O.2    88  TYR88      -0.2864
     28  CB        24.9790    1.9600    6.8460 C.3    88  TYR88       0.0560
     29  CG        26.0410    1.5280    7.8270 C.ar   88  TYR88      -0.0198
     30  CD1       27.3220    2.0760    7.7420 C.ar   88  TYR88      -0.0009
     31  CD2       25.7760    0.5690    8.8050 C.ar   88  TYR88      -0.0009
     32  CE1       28.3470    1.7120    8.6130 C.ar   88  TYR88       0.0417
     33  CE2       26.7900    0.1930    9.6840 C.ar   88  TYR88       0.0417
     34  CZ        28.0550    0.7800    9.6040 C.ar   88  TYR88       0.1957
     35  OH        29.0360    0.4110   10.4720 O.3    88  TYR88      -0.2866
     36  N         26.2120   -2.5310    2.8870 N.3    91  LEU91      -0.1245
     37  CA        27.6490   -2.5760    2.5760 C.3    91  LEU91       0.1561
     38  C         28.4280   -3.6720    3.2810 C.2    91  LEU91       0.2260
     39  O         28.0340   -4.1140    4.3780 O.2    91  LEU91      -0.2867
     40  CB        28.2850   -1.2470    3.0180 C.3    91  LEU91       0.0270
     41  CG        27.6850   -0.0200    2.3130 C.3    91  LEU91       0.0019
     42  CD1       28.2480    1.2260    2.9570 C.3    91  LEU91       0.0001
     43  CD2       28.1700   -0.0010    0.8700 C.3    91  LEU91       0.0001
     44  N         32.0320    4.7010    5.0330 N.3    99  ALA99      -0.1245
     45  CA        30.8450    5.4550    5.3670 C.3    99  ALA99       0.1562
     46  C         30.9860    6.1470    6.7090 C.2    99  ALA99       0.2260
     47  O         30.5250    7.2900    6.8840 O.2    99  ALA99      -0.2867
     48  CB        29.6240    4.5300    5.3910 C.3    99  ALA99       0.0290
     49  N         33.1590    9.3110    6.4590 N.3   102  MET102     -0.1230
     50  CA        32.4640   10.4900    5.9450 C.3   102  MET102      0.1702
     51  C         31.6010   11.1650    6.9920 C.2   102  MET102      0.2592
     52  O         31.5760   12.3700    7.0770 O.2   102  MET102     -0.2718
     53  CB        31.6180   10.2020    4.6760 C.3   102  MET102      0.0401
     54  CG        32.4340    9.9760    3.4000 C.3   102  MET102      0.0596
     55  SD        31.3380    9.7780    1.9810 S.3   102  MET102     -0.1393
     56  CE        30.7390   11.4420    1.7500 C.3   102  MET102      0.0692
     57  N         30.8390   10.3850    7.7460 N.am  103  VAL103     -0.1980
     58  CA        29.9440   10.9660    8.7440 C.3   103  VAL103      0.1595
     59  C         30.7860   11.6100    9.8410 C.2   103  VAL103      0.2287
     60  O         30.4380   12.6350   10.3600 O.2   103  VAL103     -0.2864
     61  CB        28.9940    9.8870    9.3420 C.3   103  VAL103      0.0276
     62  CG1       28.2630   10.4060   10.5790 C.3   103  VAL103      0.0022
     63  CG2       27.9020    9.5280    8.3380 C.3   103  VAL103      0.0022
     64  N         26.3110   14.2050    4.9660 N.3   111  VAL111     -0.1245
     65  CA        26.2620   12.9750    4.2010 C.3   111  VAL111      0.1561
     66  C         24.8730   12.6560    3.6890 C.2   111  VAL111      0.2260
     67  O         24.6750   12.1670    2.5790 O.2   111  VAL111     -0.2867
     68  CB        26.7070   11.8310    5.0830 C.3   111  VAL111      0.0252
     69  CG1       26.9440   10.5850    4.2280 C.3   111  VAL111      0.0019
     70  CG2       27.9670   12.2420    5.8230 C.3   111  VAL111      0.0019
     71  N         23.9840   13.6000    0.0980 N.3   114  PHE114     -0.1241
     72  CA        24.5620   12.8450   -0.9980 C.3   114  PHE114      0.1605
     73  C         23.6140   11.7470   -1.4910 C.2   114  PHE114      0.2264
     74  O         23.9770   10.5710   -1.6820 O.2   114  PHE114     -0.2867
     75  CB        25.7910   12.1470   -0.4410 C.3   114  PHE114      0.0534
     76  CG        27.0280   13.0080   -0.3880 C.ar  114  PHE114     -0.0203
     77  CD1       27.0910   14.0650    0.5190 C.ar  114  PHE114     -0.0042
     78  CD2       28.1400   12.7630   -1.2000 C.ar  114  PHE114     -0.0042
     79  CE1       28.2210   14.8690    0.6230 C.ar  114  PHE114     -0.0003
     80  CE2       29.2840   13.5640   -1.1270 C.ar  114  PHE114     -0.0003
     81  CZ        29.3170   14.6110   -0.2030 C.ar  114  PHE114     -0.0000
     82  N         24.2500    7.8260   -2.4900 N.3   118  LEU118     -0.1245
     83  CA        23.6820    6.8230   -1.5930 C.3   118  LEU118      0.1561
     84  C         22.9990    5.7710   -2.4060 C.2   118  LEU118      0.2260
     85  O         23.1890    4.5660   -2.2470 O.2   118  LEU118     -0.2867
     86  CB        22.6990    7.4320   -0.5360 C.3   118  LEU118      0.0270
     87  CG        23.4120    8.2860    0.5650 C.3   118  LEU118      0.0019
     88  CD1       22.4270    9.1740    1.3310 C.3   118  LEU118      0.0001
     89  CD2       24.2680    7.4590    1.5530 C.3   118  LEU118      0.0001
     90  N         25.5610    3.6440   -4.2500 N.3   121  LEU121     -0.1245
     91  CA        26.2780    2.6580   -3.4370 C.3   121  LEU121      0.1561
     92  C         25.3370    1.4870   -3.0800 C.2   121  LEU121      0.2260
     93  O         25.7300    0.3280   -3.0640 O.2   121  LEU121     -0.2867
     94  CB        26.7180    3.3710   -2.1430 C.3   121  LEU121      0.0270
     95  CG        27.8730    4.3530   -2.3860 C.3   121  LEU121      0.0019
     96  CD1       28.0140    5.3070   -1.1980 C.3   121  LEU121      0.0001
     97  CD2       29.1830    3.6130   -2.6220 C.3   121  LEU121      0.0001
     98  N         30.5740   10.7260   -6.2360 N.3   133  LEU133     -0.1245
     99  CA        31.0860   11.2520   -4.9600 C.3   133  LEU133      0.1561
    100  C         32.0730   12.3990   -5.1640 C.2   133  LEU133      0.2260
    101  O         32.1720   13.2970   -4.3220 O.2   133  LEU133     -0.2867
    102  CB        31.7630   10.1810   -4.0360 C.3   133  LEU133      0.0270
    103  CG        30.7730    9.1900   -3.3580 C.3   133  LEU133      0.0019
    104  CD1       31.5180    7.9130   -2.8860 C.3   133  LEU133      0.0001
    105  CD2       30.0450    9.8660   -2.1970 C.3   133  LEU133      0.0001
    106  N         35.5270    3.1070   -1.2350 N.3   153  PHE153     -0.1241
    107  CA        34.1770    2.7000   -1.6410 C.3   153  PHE153      0.1605
    108  C         34.2590    2.0200   -2.9940 C.2   153  PHE153      0.2264
    109  O         33.5670    1.0640   -3.2760 O.2   153  PHE153     -0.2867
    110  CB        33.2780    3.9080   -1.8330 C.3   153  PHE153      0.0534
    111  CG        32.6240    4.4570   -0.6120 C.ar  153  PHE153     -0.0203
    112  CD1       31.7700    3.6370    0.1320 C.ar  153  PHE153     -0.0042
    113  CD2       32.8000    5.7940   -0.2350 C.ar  153  PHE153     -0.0042
    114  CE1       31.0990    4.1310    1.2590 C.ar  153  PHE153     -0.0003
    115  CE2       32.1560    6.2930    0.9040 C.ar  153  PHE153     -0.0003
    116  CZ        31.3070    5.4550    1.6420 C.ar  153  PHE153     -0.0000
@<TRIPOS>BOND
     1    98    99    1
     2   100    99    1
     3   100   101    2
     4    99   102    1
     5    90    91    1
     6   102   103    1
     7    91    92    1
     8    91    94    1
     9   103   104    1
    10   103   105    1
    11   109   108    2
    12    92    93    2
    13   108   107    1
    14    97    95    1
    15    82    83    1
    16    84    85    2
    17    84    83    1
    18    95    94    1
    19    95    96    1
    20   110   107    1
    21   110   111    1
    22    74    73    2
    23   107   106    1
    24    83    86    1
    25    73    72    1
    26    78    80   ar
    27    78    76   ar
    28    80    81   ar
    29    72    75    1
    30    72    71    1
    31   111   113   ar
    32   111   112   ar
    33    86    87    1
    34    75    76    1
    35    76    77   ar
    36   113   115   ar
    37    81    79   ar
    38   112   114   ar
    39    77    79   ar
    40    87    88    1
    41    87    89    1
    42    43    41    1
    43   115   116   ar
    44    22    21    1
    45   114   116   ar
    46    23    21    1
    47    56    55    1
    48    55    54    1
    49    21    18    1
    50    41    42    1
    51    41    40    1
    52    37    36    1
    53    37    40    1
    54    37    38    1
    55    67    66    2
    56    18    19    1
    57    18    17    1
    58    20    19    2
    59    38    39    2
    60    54    53    1
    61    19    24   am
    62    66    65    1
    63    65    64    1
    64    65    68    1
    65    69    68    1
    66    24    25    1
    67    53    50    1
    68    44    45    1
    69    68    70    1
    70    16    14    1
    71    45    48    1
    72    45    46    1
    73    25    26    1
    74    25    28    1
    75    27    26    2
    76    12    11    2
    77    10     9    1
    78    10    11    1
    79    10    13    1
    80    50    49    1
    81    50    51    1
    82    14    13    1
    83    14    15    1
    84    46    47    2
    85    28    29    1
    86    51    52    2
    87    51    57   am
    88    30    29   ar
    89    30    32   ar
    90    57    58    1
    91    29    31   ar
    92    63    61    1
    93    32    34   ar
    94    58    61    1
    95    58    59    1
    96    31    33   ar
    97    61    62    1
    98     7     5    1
    99     8     6    1
   100    34    33   ar
   101    34    35    1
   102     6     5    1
   103    59    60    2
   104     5     2    1
   105     4     3    2
   106     2     3    1
   107     2     1    1
