@<TRIPOS>MOLECULE
tmp/1nhkA00.pdb
 106 100 0 0 0
SMALL
GASTEIGER

@<TRIPOS>ATOM
      1  N         19.8430   40.7700  -12.6980 N.3    10  LYS10      -0.1245
      2  CA        20.6310   40.5850  -13.9140 C.3    10  LYS10       0.1561
      3  C         21.4730   41.8060  -14.2690 C.2    10  LYS10       0.2260
      4  O         21.1970   42.9040  -13.7850 O.2    10  LYS10      -0.2867
      5  CB        19.7030   40.1650  -15.0570 C.3    10  LYS10       0.0271
      6  CG        18.9600   38.8750  -14.7440 C.3    10  LYS10       0.0035
      7  CD        18.1130   38.4110  -15.9130 C.3    10  LYS10       0.0206
      8  CE        17.5370   37.0340  -15.6380 C.3    10  LYS10       0.1093
      9  NZ        16.8250   36.4950  -16.8320 N.3    10  LYS10      -0.1314
     10  N         21.7670   27.3870  -15.3300 N.3    50  TYR50      -0.1241
     11  CA        20.6660   27.2770  -16.2820 C.3    50  TYR50       0.1605
     12  C         20.6750   25.9830  -17.1030 C.2    50  TYR50       0.2264
     13  O         20.1210   25.9440  -18.2050 O.2    50  TYR50      -0.2867
     14  CB        20.6790   28.4690  -17.2290 C.3    50  TYR50       0.0534
     15  CG        20.2450   29.7760  -16.6070 C.ar   50  TYR50      -0.0201
     16  CD1       18.9340   29.9620  -16.1670 C.ar   50  TYR50      -0.0009
     17  CD2       21.1320   30.8490  -16.5080 C.ar   50  TYR50      -0.0009
     18  CE1       18.5180   31.1860  -15.6560 C.ar   50  TYR50       0.0417
     19  CE2       20.7250   32.0800  -15.9930 C.ar   50  TYR50       0.0417
     20  CZ        19.4220   32.2390  -15.5740 C.ar   50  TYR50       0.1957
     21  OH        19.0210   33.4550  -15.0750 O.3    50  TYR50      -0.2866
     22  N         17.7500   24.5800  -19.3260 N.3    53  HIS53      -0.1241
     23  CA        17.4260   25.1760  -20.6210 C.3    53  HIS53       0.1621
     24  C         18.5010   24.9190  -21.6560 C.2    53  HIS53       0.2264
     25  O         18.5120   25.5780  -22.7030 O.2    53  HIS53      -0.2867
     26  CB        17.2510   26.6940  -20.4930 C.3    53  HIS53       0.0745
     27  CG        16.1500   27.1040  -19.5650 C.ar   53  HIS53       0.0817
     28  ND1       16.3930   27.6780  -18.3380 N.ar   53  HIS53      -0.2268
     29  CD2       14.8060   27.0410  -19.6940 C.ar   53  HIS53       0.1154
     30  CE1       15.2420   27.9510  -17.7480 C.ar   53  HIS53       0.1986
     31  NE2       14.2680   27.5740  -18.5500 N.ar   53  HIS53      -0.2212
     32  N         17.5880   29.5510  -26.9660 N.3    58  PHE58      -0.1241
     33  CA        18.1030   30.8160  -26.4390 C.3    58  PHE58       0.1605
     34  C         19.2170   30.6480  -25.3970 C.2    58  PHE58       0.2264
     35  O         19.8750   31.6220  -25.0250 O.2    58  PHE58      -0.2867
     36  CB        16.9580   31.6440  -25.8540 C.3    58  PHE58       0.0534
     37  CG        16.1450   30.9110  -24.8260 C.ar   58  PHE58      -0.0203
     38  CD1       16.5810   30.8210  -23.5100 C.ar   58  PHE58      -0.0042
     39  CD2       14.9490   30.2940  -25.1810 C.ar   58  PHE58      -0.0042
     40  CE1       15.8330   30.1330  -22.5590 C.ar   58  PHE58      -0.0003
     41  CE2       14.1940   29.6060  -24.2380 C.ar   58  PHE58      -0.0003
     42  CZ        14.6390   29.5210  -22.9270 C.ar   58  PHE58      -0.0000
     43  N         21.5170   33.4210  -23.4720 N.3    62  LEU62      -0.1245
     44  CA        21.2140   33.5900  -22.0560 C.3    62  LEU62       0.1561
     45  C         22.5250   33.6470  -21.2750 C.2    62  LEU62       0.2260
     46  O         22.7710   34.5860  -20.5120 O.2    62  LEU62      -0.2867
     47  CB        20.3650   32.4060  -21.5810 C.3    62  LEU62       0.0270
     48  CG        19.9970   32.2700  -20.1050 C.3    62  LEU62       0.0019
     49  CD1       19.2740   33.5240  -19.6210 C.3    62  LEU62       0.0001
     50  CD2       19.1450   31.0320  -19.9160 C.3    62  LEU62       0.0001
     51  N          7.6990   36.6670  -17.2180 N.3    92  THR92      -0.1218
     52  CA         9.0460   36.5600  -17.7720 C.3    92  THR92       0.1862
     53  C          9.2160   37.4900  -18.9840 C.2    92  THR92       0.2287
     54  O         10.2990   38.0510  -19.2050 O.2    92  THR92      -0.2866
     55  CB         9.3480   35.1010  -18.1620 C.3    92  THR92       0.1770
     56  OG1        9.2230   34.2730  -16.9960 O.3    92  THR92      -0.2211
     57  CG2       10.7560   34.9610  -18.7300 C.3    92  THR92       0.0375
     58  N          9.4820   43.6650  -13.7540 N.3   103  ARG103     -0.1245
     59  CA         9.7080   43.5670  -15.1850 C.3   103  ARG103      0.1563
     60  C          8.9650   44.6000  -16.0150 C.2   103  ARG103      0.2260
     61  O          9.5000   45.1050  -17.0010 O.2   103  ARG103     -0.2867
     62  CB         9.4520   42.1440  -15.6730 C.3   103  ARG103      0.0307
     63  CG        10.5590   41.2040  -15.2070 C.3   103  ARG103      0.0489
     64  CD        10.1220   39.7840  -15.2520 C.3   103  ARG103      0.2205
     65  NE        11.2390   38.8740  -15.0400 N.pl3 103  ARG103     -0.0865
     66  CZ        11.0900   37.6110  -14.6600 C.cat 103  ARG103      0.5346
     67  NH1        9.8710   37.1410  -14.4420 N.pl3 103  ARG103      0.1354
     68  NH2       12.1440   36.8010  -14.5690 N.pl3 103  ARG103      0.1354
     69  N         12.5840   40.2480  -23.2670 N.3   110  ILE110     -0.1231
     70  CA        12.5240   38.9550  -22.6020 C.3   110  ILE110      0.1692
     71  C         13.9150   38.4710  -22.2380 C.2   110  ILE110      0.2592
     72  O         14.0770   37.7310  -21.2750 O.2   110  ILE110     -0.2718
     73  CB        11.8200   37.8790  -23.4530 C.3   110  ILE110      0.0266
     74  CG1       11.6190   36.6090  -22.6140 C.3   110  ILE110      0.0019
     75  CG2       12.6420   37.5670  -24.7040 C.3   110  ILE110      0.0020
     76  CD1       10.6780   35.6130  -23.2190 C.3   110  ILE110      0.0001
     77  N         14.9090   38.8500  -23.0370 N.am  111  ASP111     -0.1974
     78  CA        16.2810   38.4410  -22.7600 C.3   111  ASP111      0.1709
     79  C         16.8760   39.3360  -21.6790 C.2   111  ASP111      0.2293
     80  O         17.5550   38.8600  -20.7670 O.2   111  ASP111     -0.2864
     81  CB        17.1340   38.4270  -24.0390 C.3   111  ASP111      0.1436
     82  CG        16.8940   39.6350  -24.9290 C.2   111  ASP111      0.3671
     83  OD1       15.9200   39.6100  -25.7250 O.co2 111  ASP111     -0.2456
     84  OD2       17.6940   40.5960  -24.8480 O.co2 111  ASP111     -0.2456
     85  N         15.4870   40.8980  -19.0340 N.3   113  ASN113     -0.1240
     86  CA        14.3580   41.0580  -18.1320 C.3   113  ASN113      0.1653
     87  C         14.6370   41.3770  -16.6540 C.2   113  ASN113      0.2266
     88  O         13.8290   41.0730  -15.7790 O.2   113  ASN113     -0.2867
     89  CB        13.3470   39.9150  -18.3000 C.3   113  ASN113      0.1155
     90  CG        13.8930   38.5770  -17.8810 C.2   113  ASN113      0.2627
     91  OD1       15.0890   38.4280  -17.6540 O.2   113  ASN113     -0.2716
     92  ND2       13.0160   37.5880  -17.7810 N.am  113  ASN113     -0.0877
     93  N         15.6770   37.3210  -12.0220 N.3   116  HIS116     -0.1226
     94  CA        15.3860   35.9080  -12.0940 C.3   116  HIS116      0.1752
     95  C         14.8980   35.5920  -10.6820 C.2   116  HIS116      0.2596
     96  O         15.3620   36.1970   -9.7080 O.2   116  HIS116     -0.2718
     97  CB        16.6350   35.0770  -12.3960 C.3   116  HIS116      0.0759
     98  CG        16.5320   33.6600  -11.9090 C.ar  116  HIS116      0.0818
     99  ND1       15.9090   32.6650  -12.6290 N.ar  116  HIS116     -0.2268
    100  CD2       16.8520   33.1150  -10.7090 C.ar  116  HIS116      0.1154
    101  CE1       15.8360   31.5750  -11.8950 C.ar  116  HIS116      0.1986
    102  NE2       16.3980   31.8190  -10.7240 N.ar  116  HIS116     -0.2212
    103  N         13.9520   34.6640  -10.5750 N.am  117  GLY117     -0.1957
    104  CA        13.4520   34.2400   -9.2770 C.3   117  GLY117      0.1869
    105  C         13.1750   32.7560   -9.4300 C.2   117  GLY117      0.2309
    106  O         12.7560   32.3340  -10.5150 O.2   117  GLY117     -0.2863
@<TRIPOS>BOND
     1    32    33    1
     2    33    36    1
     3    33    34    1
     4    36    37    1
     5    83    82   ar
     6    34    35    2
     7    39    37   ar
     8    39    41   ar
     9    82    84   ar
    10    82    81    1
    11    37    38   ar
    12    75    73    1
    13    41    42   ar
    14    81    78    1
    15    38    40   ar
    16    43    44    1
    17    73    74    1
    18    73    70    1
    19    69    70    1
    20    76    74    1
    21    77    78    1
    22    77    71   am
    23    42    40   ar
    24    78    79    1
    25    25    24    2
    26    70    71    1
    27    71    72    2
    28    44    47    1
    29    44    45    1
    30    79    80    2
    31    24    23    1
    32    47    48    1
    33    45    46    2
    34    23    26    1
    35    23    22    1
    36    26    27    1
    37    48    50    1
    38    48    49    1
    39    29    27   ar
    40    29    31   ar
    41    27    28   ar
    42    54    53    2
    43    85    86    1
    44    53    52    1
    45    57    55    1
    46    31    30   ar
    47    28    30   ar
    48    89    86    1
    49    89    90    1
    50    13    12    2
    51    55    52    1
    52    55    56    1
    53    86    87    1
    54    90    92   am
    55    90    91    2
    56    52    51    1
    57    14    15    1
    58    14    11    1
    59    12    11    1
    60    61    60    2
    61     9     8    1
    62    87    88    2
    63    15    17   ar
    64    15    16   ar
    65    17    19   ar
    66    11    10    1
    67    16    18   ar
    68    60    59    1
    69    19    20   ar
    70     7     8    1
    71     7     6    1
    72    62    63    1
    73    62    59    1
    74    18    20   ar
    75    20    21    1
    76    64    63    1
    77    64    65    1
    78    59    58    1
    79     5     6    1
    80     5     2    1
    81    65    66    2
    82    66    68    1
    83    66    67    1
    84     3     2    1
    85     3     4    2
    86     2     1    1
    87    99    98   ar
    88    99   101   ar
    89    97    94    1
    90    97    98    1
    91    94    93    1
    92    94    95    1
    93    98   100   ar
    94   101   102   ar
    95   102   100   ar
    96    95   103   am
    97    95    96    2
    98   103   104    1
    99   106   105    2
   100   105   104    1
