@<TRIPOS>MOLECULE
tmp/1nhtA00.pdb
 167 159 0 0 0
SMALL
GASTEIGER

@<TRIPOS>ATOM
      1  N         -5.0770   48.2970   49.4580 N.3    13  ASP13      -0.1225
      2  CA        -3.8150   48.7670   48.8790 C.3    13  ASP13       0.1805
      3  C         -2.5920   47.9900   49.2370 C.2    13  ASP13       0.2598
      4  O         -1.4740   48.4790   49.0790 O.2    13  ASP13      -0.2718
      5  CB        -3.6070   50.2390   49.1520 C.3    13  ASP13       0.1424
      6  CG        -4.7920   51.0430   48.7270 C.2    13  ASP13       0.3668
      7  OD1       -5.7630   50.4050   48.2700 O.co2  13  ASP13      -0.2456
      8  OD2       -4.8040   52.2830   48.8310 O.co2  13  ASP13      -0.2456
      9  N         -2.8040   46.7350   49.6100 N.am   14  GLU14      -0.1965
     10  CA        -1.7130   45.8610   50.0020 C.3    14  GLU14       0.1733
     11  C         -0.9520   45.3550   48.7800 C.2    14  GLU14       0.2617
     12  O          0.2350   45.0040   48.8910 O.2    14  GLU14      -0.2715
     13  CB        -2.2670   44.6660   50.7970 C.3    14  GLU14       0.0429
     14  CG        -3.1700   45.0300   52.0060 C.3    14  GLU14       0.1163
     15  CD        -4.6580   45.2610   51.6490 C.2    14  GLU14       0.3649
     16  OE1       -5.0330   45.3300   50.4300 O.co2  14  GLU14      -0.2457
     17  OE2       -5.4780   45.3380   52.6110 O.co2  14  GLU14      -0.2457
     18  N         -1.6710   45.2410   47.6480 N.am   15  GLY15      -0.1940
     19  CA        -1.0940   44.7520   46.4090 C.3    15  GLY15       0.2014
     20  C         -1.8610   43.6220   45.7370 C.2    15  GLY15       0.2639
     21  O         -1.2650   42.7130   45.1210 O.2    15  GLY15      -0.2714
     22  N         -3.1830   43.6730   45.8410 N.am   16  LYS16      -0.1963
     23  CA        -4.0250   42.6560   45.2140 C.3    16  LYS16       0.1728
     24  C         -3.8710   42.6090   43.6710 C.2    16  LYS16       0.2617
     25  O         -3.6840   41.5240   43.1070 O.2    16  LYS16      -0.2715
     26  CB        -5.5030   42.8980   45.5580 C.3    16  LYS16       0.0311
     27  CG        -5.9270   42.5550   47.0020 C.3    16  LYS16       0.0038
     28  CD        -7.0160   43.5430   47.4530 C.3    16  LYS16       0.0206
     29  CE        -6.3560   44.8810   47.7330 C.3    16  LYS16       0.1093
     30  NZ        -7.2940   46.0120   47.7560 N.3    16  LYS16      -0.1314
     31  N         -3.9760   43.7820   43.0120 N.am   17  GLY17      -0.1940
     32  CA        -3.8680   43.8800   41.5530 C.3    17  GLY17       0.2014
     33  C         -2.6870   43.1030   40.9790 C.2    17  GLY17       0.2638
     34  O         -2.8450   42.1010   40.2400 O.2    17  GLY17      -0.2714
     35  N         -1.4900   43.5320   41.3650 N.am   18  LYS18      -0.1977
     36  CA        -0.2970   42.8530   40.9160 C.3    18  LYS18       0.1596
     37  C         -0.3910   41.3470   41.1280 C.2    18  LYS18       0.2287
     38  O         -0.1480   40.5650   40.2100 O.2    18  LYS18      -0.2864
     39  CB         0.9510   43.3740   41.6310 C.3    18  LYS18       0.0298
     40  CG         2.0450   42.3140   41.6580 C.3    18  LYS18       0.0038
     41  CD         3.4140   42.8140   42.1060 C.3    18  LYS18       0.0206
     42  CE         4.4350   41.6460   41.9630 C.3    18  LYS18       0.1093
     43  NZ         5.8710   41.9180   42.3390 N.3    18  LYS18      -0.1314
     44  N         -8.7330   50.4600   43.3020 N.3    40  GLY40      -0.1210
     45  CA        -7.7750   50.9690   42.3600 C.3    40  GLY40       0.1956
     46  C         -6.6470   49.9990   42.5320 C.2    40  GLY40       0.2612
     47  O         -5.9240   50.0410   43.5510 O.2    40  GLY40      -0.2717
     48  N         -6.5520   49.0430   41.6200 N.am   41  HIS41      -0.1961
     49  CA        -5.4980   48.0480   41.7130 C.3    41  HIS41       0.1787
     50  C         -4.3910   48.5470   40.8060 C.2    41  HIS41       0.2620
     51  O         -4.5640   49.5420   40.1310 O.2    41  HIS41      -0.2715
     52  CB        -6.0560   46.6850   41.3420 C.3    41  HIS41       0.0785
     53  CG        -7.2120   46.2640   42.2090 C.ar   41  HIS41       0.0821
     54  ND1       -7.6130   44.9510   42.3430 N.ar   41  HIS41      -0.2267
     55  CD2       -8.0460   46.9880   42.9970 C.ar   41  HIS41       0.1154
     56  CE1       -8.6430   44.8840   43.1720 C.ar   41  HIS41       0.1986
     57  NE2       -8.9240   46.1080   43.5810 N.ar   41  HIS41      -0.2212
     58  N         -3.2220   47.9480   40.8120 N.am   42  THR42      -0.1951
     59  CA        -2.2050   48.4980   39.9450 C.3    42  THR42       0.1897
     60  C         -1.2360   47.4640   39.5240 C.2    42  THR42       0.2313
     61  O         -0.4700   46.9630   40.3510 O.2    42  THR42      -0.2863
     62  CB        -1.4760   49.6700   40.5950 C.3    42  THR42       0.1794
     63  OG1       -2.4430   50.6580   40.9870 O.3    42  THR42      -0.2208
     64  CG2       -0.4830   50.2960   39.6140 C.3    42  THR42       0.0378
     65  N          1.7540   46.3450   36.7910 N.3    44  VAL44      -0.1245
     66  CA         2.8620   46.9120   36.0400 C.3    44  VAL44       0.1561
     67  C          3.5620   45.7410   35.3730 C.2    44  VAL44       0.2260
     68  O          4.1370   44.8670   36.0590 O.2    44  VAL44      -0.2867
     69  CB         3.8520   47.6560   36.9310 C.3    44  VAL44       0.0252
     70  CG1        5.0930   48.0270   36.1230 C.3    44  VAL44       0.0019
     71  CG2        3.1880   48.9100   37.4800 C.3    44  VAL44       0.0019
     72  N          8.9150   56.6880   49.7600 N.3   293  GLN293     -0.1231
     73  CA         9.5720   55.4950   49.2310 C.3   293  GLN293      0.1698
     74  C          8.6280   54.4490   48.5890 C.2   293  GLN293      0.2593
     75  O          9.0380   53.7040   47.6710 O.2   293  GLN293     -0.2718
     76  CB        10.3500   54.8460   50.3740 C.3   293  GLN293      0.0381
     77  CG        11.1830   53.6940   49.9730 C.3   293  GLN293      0.0905
     78  CD        12.4100   54.1180   49.2080 C.2   293  GLN293      0.2608
     79  OE1       12.7600   55.3120   49.1940 O.2   293  GLN293     -0.2717
     80  NE2       13.1020   53.1450   48.5910 N.am  293  GLN293     -0.0878
     81  N          7.4000   54.3420   49.0960 N.am  294  GLY294     -0.1942
     82  CA         6.4650   53.3750   48.5420 C.3   294  GLY294      0.2014
     83  C          5.3950   54.0010   47.6560 C.2   294  GLY294      0.2638
     84  O          4.3520   53.3800   47.3860 O.2   294  GLY294     -0.2714
     85  N          5.6640   55.2230   47.1970 N.am  295  ASN295     -0.1972
     86  CA         4.7420   55.9550   46.3590 C.3   295  ASN295      0.1688
     87  C          3.3470   55.6390   46.8840 C.2   295  ASN295      0.2292
     88  O          2.5190   55.0740   46.1850 O.2   295  ASN295     -0.2864
     89  CB         4.9190   55.5440   44.8760 C.3   295  ASN295      0.1181
     90  CG         4.1010   56.4090   43.9150 C.2   295  ASN295      0.2629
     91  OD1        3.1950   55.9200   43.2320 O.2   295  ASN295     -0.2716
     92  ND2        4.4210   57.6890   43.8520 N.am  295  ASN295     -0.0877
     93  N         -4.6760   54.8430   44.3510 N.3   299  ALA299     -0.1245
     94  CA        -4.7620   54.5660   42.9310 C.3   299  ALA299      0.1562
     95  C         -6.1390   54.9080   42.4050 C.2   299  ALA299      0.2260
     96  O         -6.4560   54.5550   41.2580 O.2   299  ALA299     -0.2867
     97  CB        -4.4430   53.1210   42.6420 C.3   299  ALA299      0.0290
     98  N         -1.5220   58.4470   51.3510 N.3   305  ARG305     -0.1245
     99  CA        -1.9610   57.4300   52.2890 C.3   305  ARG305      0.1563
    100  C         -1.2680   57.5870   53.6360 C.2   305  ARG305      0.2260
    101  O         -0.1070   57.9990   53.7030 O.2   305  ARG305     -0.2867
    102  CB        -1.7090   56.0260   51.7080 C.3   305  ARG305      0.0307
    103  CG        -2.6090   55.6770   50.5200 C.3   305  ARG305      0.0489
    104  CD        -2.0400   54.5200   49.7180 C.3   305  ARG305      0.2205
    105  NE        -2.8790   54.1890   48.5670 N.pl3 305  ARG305     -0.0865
    106  CZ        -2.4130   53.4770   47.5370 C.cat 305  ARG305      0.5346
    107  NH1       -1.1560   53.0390   47.5180 N.pl3 305  ARG305      0.1354
    108  NH2       -3.2370   53.1490   46.5510 N.pl3 305  ARG305      0.1354
    109  N          4.1220   41.8610   50.6180 N.3   330  THR330     -0.1203
    110  CA         4.4520   42.8520   49.6150 C.3   330  THR330      0.1994
    111  C          5.2080   44.0980   50.0490 C.2   330  THR330      0.2617
    112  O          5.1670   44.5200   51.1710 O.2   330  THR330     -0.2717
    113  CB         3.2050   43.3440   48.8440 C.3   330  THR330      0.1784
    114  OG1        2.6260   44.4700   49.5190 O.3   330  THR330     -0.2211
    115  CG2        2.1810   42.2280   48.6630 C.3   330  THR330      0.0376
    116  N          5.8770   44.6980   49.0810 N.am  331  LYS331     -0.1979
    117  CA         6.5950   45.9210   49.2720 C.3   331  LYS331      0.1596
    118  C          7.7270   45.8260   50.2690 C.2   331  LYS331      0.2287
    119  O          8.1350   46.8170   50.8460 O.2   331  LYS331     -0.2864
    120  CB         5.5880   47.0460   49.5560 C.3   331  LYS331      0.0298
    121  CG         4.4980   47.1140   48.4520 C.3   331  LYS331      0.0038
    122  CD         3.5870   48.3520   48.4510 C.3   331  LYS331      0.0206
    123  CE         4.2810   49.5940   47.9240 C.3   331  LYS331      0.1093
    124  NZ         3.3090   50.6750   47.4690 N.3   331  LYS331     -0.1314
    125  N         10.7290   45.6730   49.6450 N.3   333  ASP333     -0.1225
    126  CA        11.7390   46.5930   49.1710 C.3   333  ASP333      0.1805
    127  C         11.5830   47.9750   49.7200 C.2   333  ASP333      0.2597
    128  O         12.5540   48.7120   49.8180 O.2   333  ASP333     -0.2718
    129  CB        11.7560   46.6510   47.6310 C.3   333  ASP333      0.1424
    130  CG        10.4410   47.1000   47.0430 C.2   333  ASP333      0.3668
    131  OD1        9.4930   46.3230   47.1020 O.co2 333  ASP333     -0.2456
    132  OD2       10.3480   48.2090   46.5050 O.co2 333  ASP333     -0.2456
    133  N         10.3780   48.3480   50.1040 N.am  334  VAL334     -0.1980
    134  CA        10.1940   49.7050   50.5890 C.3   334  VAL334      0.1595
    135  C         10.9140   49.9670   51.9040 C.2   334  VAL334      0.2287
    136  O         11.2950   51.1130   52.2020 O.2   334  VAL334     -0.2864
    137  CB         8.7170   50.0580   50.7250 C.3   334  VAL334      0.0276
    138  CG1        8.5650   51.5070   51.2280 C.3   334  VAL334      0.0022
    139  CG2        8.0230   49.8530   49.3780 C.3   334  VAL334      0.0022
    140  N         15.1500   45.2740   46.1820 N.3   383  PHE383     -0.1241
    141  CA        14.3630   45.5490   44.9730 C.3   383  PHE383      0.1605
    142  C         14.4160   44.5330   43.8110 C.2   383  PHE383      0.2264
    143  O         15.4890   44.1620   43.2980 O.2   383  PHE383     -0.2867
    144  CB        14.6410   46.9310   44.4270 C.3   383  PHE383      0.0534
    145  CG        13.6870   47.3320   43.3520 C.ar  383  PHE383     -0.0203
    146  CD1       13.8630   46.8850   42.0480 C.ar  383  PHE383     -0.0042
    147  CD2       12.6050   48.1490   43.6370 C.ar  383  PHE383     -0.0042
    148  CE1       12.9710   47.2520   41.0460 C.ar  383  PHE383     -0.0003
    149  CE2       11.7050   48.5220   42.6340 C.ar  383  PHE383     -0.0003
    150  CZ        11.8910   48.0740   41.3420 C.ar  383  PHE383     -0.0000
    151  N          7.0130   39.7860   47.5130 N.3   414  SER414     -0.1217
    152  CA         7.1110   40.6390   46.3450 C.3   414  SER414      0.1889
    153  C          8.1610   41.7530   46.5200 C.2   414  SER414      0.2288
    154  O          8.1470   42.4940   47.5120 O.2   414  SER414     -0.2866
    155  CB         5.7230   41.2020   46.0120 C.3   414  SER414      0.2089
    156  OG         5.7810   42.3910   45.2490 O.3   414  SER414     -0.2183
    157  N          8.7650   44.1650   44.0620 N.3   416  GLY416     -0.1210
    158  CA         8.5590   45.2910   43.1590 C.3   416  GLY416      0.1940
    159  C          7.1980   45.3840   42.4990 C.2   416  GLY416      0.2453
    160  O          6.4110   44.4170   42.5160 O.2   416  GLY416     -0.2732
    161  N          6.8870   46.5450   41.8960 N.am  417  PRO417     -0.2728
    162  CA         5.5920   46.6800   41.2510 C.3   417  PRO417      0.1401
    163  C          5.4210   45.7570   40.0650 C.2   417  PRO417      0.2269
    164  O          4.2980   45.3240   39.7880 O.2   417  PRO417     -0.2865
    165  CB         5.5450   48.1610   40.8690 C.3   417  PRO417      0.0296
    166  CG         6.9340   48.5250   40.6900 C.3   417  PRO417      0.0237
    167  CD         7.6540   47.7920   41.7840 C.3   417  PRO417      0.0939
@<TRIPOS>BOND
     1    67    66    1
     2    67    68    2
     3    66    65    1
     4    66    69    1
     5    70    69    1
     6    69    71    1
     7    60    59    1
     8    60    61    2
     9    64    62    1
    10   164   163    2
    11    59    62    1
    12    59    58    1
    13   163   162    1
    14    51    50    2
    15    38    37    2
    16    34    33    2
    17    62    63    1
    18   166   165    1
    19   166   167    1
    20    50    58   am
    21    50    49    1
    22   165   162    1
    23    36    37    1
    24    36    35    1
    25    36    39    1
    26    33    35   am
    27    33    32    1
    28   148   150   ar
    29   148   146   ar
    30   162   161    1
    31    96    95    2
    32   150   149   ar
    33    52    49    1
    34    52    53    1
    35    32    31    1
    36    48    49    1
    37    48    46   am
    38    39    40    1
    39    40    41    1
    40   167   161    1
    41   161   159   am
    42    42    41    1
    43    42    43    1
    44   146   145   ar
    45    53    54   ar
    46    53    55   ar
    47    54    56   ar
    48    45    46    1
    49    45    44    1
    50    95    94    1
    51   159   160    2
    52   159   158    1
    53    46    47    2
    54   149   147   ar
    55    97    94    1
    56    94    93    1
    57    55    57   ar
    58    31    24   am
    59    25    24    2
    60   158   157    1
    61    56    57   ar
    62    91    90    2
    63   143   142    2
    64   145   147   ar
    65   145   144    1
    66    24    23    1
    67   142   141    1
    68    92    90   am
    69    90    89    1
    70   144   141    1
    71    89    86    1
    72   141   140    1
    73    21    20    2
    74    23    26    1
    75    23    22    1
    76   156   155    1
    77    26    27    1
    78    20    22   am
    79    20    19    1
    80   155   152    1
    81    88    87    2
    82   152   153    1
    83   152   151    1
    84    86    87    1
    85    86    85    1
    86    19    18    1
    87   132   130   ar
    88   153   154    2
    89   108   106    1
    90    27    28    1
    91   130   131   ar
    92   130   129    1
    93    85    83   am
    94    84    83    2
    95    28    29    1
    96   124   123    1
    97   107   106    1
    98   106   105    2
    99   129   126    1
   100    18    11   am
   101    83    82    1
   102    75    74    2
   103    29    30    1
   104   123   122    1
   105     7     6   ar
   106   122   121    1
   107   121   120    1
   108    82    81    1
   109   105   104    1
   110    74    81   am
   111    74    73    1
   112    80    78   am
   113   115   113    1
   114     6     8   ar
   115     6     5    1
   116    11    12    2
   117    11    10    1
   118   113   114    1
   119   113   110    1
   120     2     5    1
   121     2     3    1
   122     2     1    1
   123     4     3    2
   124   116   117    1
   125   116   111   am
   126   126   125    1
   127   126   127    1
   128    79    78    2
   129    78    77    1
   130    73    72    1
   131    73    76    1
   132     3     9   am
   133   117   120    1
   134   117   118    1
   135   139   137    1
   136     9    10    1
   137   110   111    1
   138   110   109    1
   139   104   103    1
   140   127   128    2
   141   127   133   am
   142    77    76    1
   143    10    13    1
   144   111   112    2
   145   133   134    1
   146   118   119    2
   147    16    15   ar
   148   103   102    1
   149   134   137    1
   150   134   135    1
   151   137   138    1
   152    13    14    1
   153    98    99    1
   154    15    14    1
   155    15    17   ar
   156   102    99    1
   157   135   136    2
   158    99   100    1
   159   100   101    2
