@<TRIPOS>MOLECULE
tmp/1nhtA01.pdb
 93 85 0 0 0
SMALL
GASTEIGER

@<TRIPOS>ATOM
      1  N         -5.0770   48.2970   49.4580 N.3    13  ASP13      -0.1239
      2  CA        -3.8150   48.7670   48.8790 C.3    13  ASP13       0.1674
      3  C         -2.5920   47.9900   49.2370 C.2    13  ASP13       0.2266
      4  O         -1.4740   48.4790   49.0790 O.2    13  ASP13      -0.2867
      5  CB        -3.6070   50.2390   49.1520 C.3    13  ASP13       0.1410
      6  CG        -4.7920   51.0430   48.7270 C.2    13  ASP13       0.3668
      7  OD1       -5.7630   50.4050   48.2700 O.co2  13  ASP13      -0.2456
      8  OD2       -4.8040   52.2830   48.8310 O.co2  13  ASP13      -0.2456
      9  N        -14.2120   52.0230   43.4890 N.3    38  ASN38      -0.1225
     10  CA       -13.5210   52.7800   44.5340 C.3    38  ASN38       0.1785
     11  C        -12.1550   52.1290   44.5790 C.2    38  ASN38       0.2597
     12  O        -11.1450   52.7850   44.8270 O.2    38  ASN38      -0.2718
     13  CB       -14.2280   52.6920   45.8950 C.3    38  ASN38       0.1169
     14  CG       -14.8590   51.3300   46.1700 C.2    38  ASN38       0.2627
     15  OD1      -14.5930   50.3210   45.4930 O.2    38  ASN38      -0.2716
     16  ND2      -15.7450   51.3110   47.1410 N.am   38  ASN38      -0.0877
     17  N        -12.1360   50.8360   44.2710 N.am   39  ALA39      -0.1966
     18  CA       -10.9170   50.0830   44.2200 C.3    39  ALA39       0.1728
     19  C        -10.0180   50.6820   43.1570 C.2    39  ALA39       0.2616
     20  O        -10.4620   51.3610   42.2590 O.2    39  ALA39      -0.2715
     21  CB       -11.2040   48.6350   43.9210 C.3    39  ALA39       0.0334
     22  N         -8.7330   50.4600   43.3020 N.am   40  GLY40      -0.1955
     23  CA        -7.7750   50.9690   42.3600 C.3    40  GLY40       0.1869
     24  C         -6.6470   49.9990   42.5320 C.2    40  GLY40       0.2309
     25  O         -5.9240   50.0410   43.5510 O.2    40  GLY40      -0.2863
     26  N        -14.3440   57.4260   48.8370 N.3   129  THR129     -0.1218
     27  CA       -13.7480   57.6470   47.5030 C.3   129  THR129      0.1862
     28  C        -14.5480   58.4660   46.4830 C.2   129  THR129      0.2287
     29  O        -14.0830   58.6260   45.3500 O.2   129  THR129     -0.2866
     30  CB       -13.3700   56.3140   46.7890 C.3   129  THR129      0.1770
     31  OG1      -14.5360   55.4920   46.6630 O.3   129  THR129     -0.2211
     32  CG2      -12.2680   55.5570   47.5340 C.3   129  THR129      0.0375
     33  N        -10.5380   46.4660   48.4500 N.3   224  GLN224     -0.1245
     34  CA       -10.3290   46.9260   49.8270 C.3   224  GLN224      0.1566
     35  C         -9.6380   45.8540   50.6980 C.2   224  GLN224      0.2260
     36  O         -8.9480   44.9760   50.1680 O.2   224  GLN224     -0.2867
     37  CB       -11.6680   47.3860   50.4300 C.3   224  GLN224      0.0367
     38  CG       -12.2040   48.6590   49.8260 C.3   224  GLN224      0.0905
     39  CD       -12.9640   48.4660   48.4880 C.2   224  GLN224      0.2608
     40  OE1      -13.8460   47.6170   48.3690 O.2   224  GLN224     -0.2717
     41  NE2      -12.6720   49.3290   47.5150 N.am  224  GLN224     -0.0878
     42  N         -6.0790   54.8240   53.8610 N.3   273  VAL273     -0.1245
     43  CA        -6.5680   55.9950   53.1760 C.3   273  VAL273      0.1561
     44  C         -8.0240   56.0730   53.5820 C.2   273  VAL273      0.2260
     45  O         -8.8010   55.1050   53.4410 O.2   273  VAL273     -0.2867
     46  CB        -6.3160   56.0140   51.6210 C.3   273  VAL273      0.0252
     47  CG1       -7.3360   55.1340   50.8370 C.3   273  VAL273      0.0019
     48  CG2       -6.3200   57.4720   51.1370 C.3   273  VAL273      0.0019
     49  N         -3.3390   57.0620   46.7800 N.3   298  GLY298     -0.1210
     50  CA        -4.4180   56.2100   46.3130 C.3   298  GLY298      0.1956
     51  C         -4.4950   56.0790   44.8110 C.2   298  GLY298      0.2612
     52  O         -4.4370   57.0850   44.0800 O.2   298  GLY298     -0.2717
     53  N         -4.6760   54.8430   44.3510 N.am  299  ALA299     -0.1965
     54  CA        -4.7620   54.5660   42.9310 C.3   299  ALA299      0.1728
     55  C         -6.1390   54.9080   42.4050 C.2   299  ALA299      0.2617
     56  O         -6.4560   54.5550   41.2580 O.2   299  ALA299     -0.2715
     57  CB        -4.4430   53.1210   42.6420 C.3   299  ALA299      0.0334
     58  N         -6.9480   55.5870   43.2220 N.am  300  THR300     -0.1937
     59  CA        -8.2650   55.9770   42.8020 C.3   300  THR300      0.2028
     60  C         -8.6170   57.4120   43.1350 C.2   300  THR300      0.2642
     61  O         -9.2380   58.0810   42.3110 O.2   300  THR300     -0.2714
     62  CB        -9.3390   55.0710   43.3720 C.3   300  THR300      0.1808
     63  OG1       -9.0970   53.7220   42.9550 O.3   300  THR300     -0.2208
     64  CG2      -10.7060   55.5230   42.9040 C.3   300  THR300      0.0379
     65  N         -8.2650   57.9230   44.3110 N.am  301  THR301     -0.1950
     66  CA        -8.6260   59.3190   44.5870 C.3   301  THR301      0.1897
     67  C         -7.4330   60.2900   44.5380 C.2   301  THR301      0.2313
     68  O         -7.6220   61.4950   44.4820 O.2   301  THR301     -0.2863
     69  CB        -9.4460   59.4720   45.9360 C.3   301  THR301      0.1794
     70  OG1      -10.6090   58.6180   45.9210 O.3   301  THR301     -0.2208
     71  CG2       -9.9840   60.9000   46.0850 C.3   301  THR301      0.0378
     72  N         -5.3260   60.7940   46.9100 N.3   303  ARG303     -0.1245
     73  CA        -5.0110   61.0740   48.3190 C.3   303  ARG303      0.1563
     74  C         -3.7810   60.3560   48.8230 C.2   303  ARG303      0.2260
     75  O         -3.5650   59.1660   48.5380 O.2   303  ARG303     -0.2867
     76  CB        -6.1840   60.6710   49.2320 C.3   303  ARG303      0.0307
     77  CG        -7.5090   61.3730   48.9160 C.3   303  ARG303      0.0489
     78  CD        -8.6420   60.9480   49.8420 C.3   303  ARG303      0.2205
     79  NE        -8.8890   59.5070   49.8160 N.pl3 303  ARG303     -0.0865
     80  CZ       -10.0540   58.9940   50.2100 C.cat 303  ARG303      0.5346
     81  NH1      -11.0230   59.7810   50.6420 N.pl3 303  ARG303      0.1354
     82  NH2      -10.2830   57.6880   50.1030 N.pl3 303  ARG303      0.1354
     83  N         -1.5220   58.4470   51.3510 N.3   305  ARG305     -0.1245
     84  CA        -1.9610   57.4300   52.2890 C.3   305  ARG305      0.1563
     85  C         -1.2680   57.5870   53.6360 C.2   305  ARG305      0.2260
     86  O         -0.1070   57.9990   53.7030 O.2   305  ARG305     -0.2867
     87  CB        -1.7090   56.0260   51.7080 C.3   305  ARG305      0.0307
     88  CG        -2.6090   55.6770   50.5200 C.3   305  ARG305      0.0489
     89  CD        -2.0400   54.5200   49.7180 C.3   305  ARG305      0.2205
     90  NE        -2.8790   54.1890   48.5670 N.pl3 305  ARG305     -0.0865
     91  CZ        -2.4130   53.4770   47.5370 C.cat 305  ARG305      0.5346
     92  NH1       -1.1560   53.0390   47.5180 N.pl3 305  ARG305      0.1354
     93  NH2       -3.2370   53.1490   46.5510 N.pl3 305  ARG305      0.1354
@<TRIPOS>BOND
     1    56    55    2
     2    20    19    2
     3    61    60    2
     4    23    24    1
     5    23    22    1
     6    55    54    1
     7    55    58   am
     8    24    25    2
     9    57    54    1
    10    59    60    1
    11    59    58    1
    12    59    62    1
    13    64    62    1
    14    54    53    1
    15    63    62    1
    16    60    65   am
    17    19    22   am
    18    19    18    1
    19     9    10    1
    20    21    18    1
    21    52    51    2
    22    18    17    1
    23    17    11   am
    24    65    66    1
    25    53    51   am
    26    68    67    2
    27    10    11    1
    28    10    13    1
    29    67    66    1
    30    11    12    2
    31    66    69    1
    32    51    50    1
    33    29    28    2
    34    15    14    2
    35    13    14    1
    36    70    69    1
    37    69    71    1
    38    14    16   am
    39    50    49    1
    40    28    27    1
    41    93    91    1
    42    31    30    1
    43    30    27    1
    44    30    32    1
    45    72    73    1
    46    27    26    1
    47    41    39   am
    48    92    91    1
    49    91    90    2
    50     7     6   ar
    51    73    74    1
    52    73    76    1
    53    40    39    2
    54    33    34    1
    55    39    38    1
    56    75    74    2
    57    90    89    1
    58     6     8   ar
    59     6     5    1
    60     2     5    1
    61     2     3    1
    62     2     1    1
    63    77    76    1
    64    77    78    1
    65     4     3    2
    66    89    88    1
    67    79    78    1
    68    79    80    2
    69    38    37    1
    70    34    37    1
    71    34    35    1
    72    82    80    1
    73    36    35    2
    74    80    81    1
    75    88    87    1
    76    47    46    1
    77    48    46    1
    78    83    84    1
    79    46    43    1
    80    87    84    1
    81    84    85    1
    82    43    44    1
    83    43    42    1
    84    45    44    2
    85    85    86    2
