@<TRIPOS>MOLECULE
tmp/1nhtA02.pdb
 215 208 0 0 0
SMALL
GASTEIGER

@<TRIPOS>ATOM
      1  N         -6.0020   47.4680   55.2420 N.3    11  TRP11      -0.1227
      2  CA        -6.9800   48.4970   54.8530 C.3    11  TRP11       0.1737
      3  C         -6.9330   48.7640   53.3260 C.2    11  TRP11       0.2596
      4  O         -6.9500   49.9370   52.8670 O.2    11  TRP11      -0.2718
      5  CB        -6.6990   49.7950   55.6120 C.3    11  TRP11       0.0564
      6  CG        -6.7800   49.6460   57.1060 C.ar   11  TRP11       0.0003
      7  CD1       -7.8820   49.8570   57.8930 C.ar   11  TRP11       0.0946
      8  CD2       -5.6890   49.3730   58.0030 C.ar   11  TRP11       0.0152
      9  NE1       -7.5370   49.7570   59.2130 N.ar   11  TRP11      -0.2442
     10  CE2       -6.2010   49.4710   59.3170 C.ar   11  TRP11       0.0810
     11  CE3       -4.3310   49.0740   57.8210 C.ar   11  TRP11       0.0012
     12  CZ2       -5.3960   49.2940   60.4610 C.ar   11  TRP11       0.0191
     13  CZ3       -3.5260   48.8920   58.9490 C.ar   11  TRP11       0.0001
     14  CH2       -4.0690   49.0090   60.2640 C.ar   11  TRP11       0.0015
     15  N         -6.8720   47.6700   52.5660 N.am   12  GLY12      -0.1942
     16  CA        -6.7730   47.7800   51.1270 C.3    12  GLY12       0.2014
     17  C         -5.3850   48.3000   50.7640 C.2    12  GLY12       0.2638
     18  O         -4.6140   48.6700   51.6700 O.2    12  GLY12      -0.2714
     19  N         -5.0770   48.2970   49.4580 N.am   13  ASP13      -0.1971
     20  CA        -3.8150   48.7670   48.8790 C.3    13  ASP13       0.1709
     21  C         -2.5920   47.9900   49.2370 C.2    13  ASP13       0.2293
     22  O         -1.4740   48.4790   49.0790 O.2    13  ASP13      -0.2864
     23  CB        -3.6070   50.2390   49.1520 C.3    13  ASP13       0.1436
     24  CG        -4.7920   51.0430   48.7270 C.2    13  ASP13       0.3671
     25  OD1       -5.7630   50.4050   48.2700 O.co2  13  ASP13      -0.2456
     26  OD2       -4.8040   52.2830   48.8310 O.co2  13  ASP13      -0.2456
     27  N         -3.1830   43.6730   45.8410 N.3    16  LYS16      -0.1245
     28  CA        -4.0250   42.6560   45.2140 C.3    16  LYS16       0.1561
     29  C         -3.8710   42.6090   43.6710 C.2    16  LYS16       0.2260
     30  O         -3.6840   41.5240   43.1070 O.2    16  LYS16      -0.2867
     31  CB        -5.5030   42.8980   45.5580 C.3    16  LYS16       0.0271
     32  CG        -5.9270   42.5550   47.0020 C.3    16  LYS16       0.0035
     33  CD        -7.0160   43.5430   47.4530 C.3    16  LYS16       0.0206
     34  CE        -6.3560   44.8810   47.7330 C.3    16  LYS16       0.1093
     35  NZ        -7.2940   46.0120   47.7560 N.3    16  LYS16      -0.1314
     36  N        -14.2120   52.0230   43.4890 N.3    38  ASN38      -0.1225
     37  CA       -13.5210   52.7800   44.5340 C.3    38  ASN38       0.1785
     38  C        -12.1550   52.1290   44.5790 C.2    38  ASN38       0.2597
     39  O        -11.1450   52.7850   44.8270 O.2    38  ASN38      -0.2718
     40  CB       -14.2280   52.6920   45.8950 C.3    38  ASN38       0.1169
     41  CG       -14.8590   51.3300   46.1700 C.2    38  ASN38       0.2627
     42  OD1      -14.5930   50.3210   45.4930 O.2    38  ASN38      -0.2716
     43  ND2      -15.7450   51.3110   47.1410 N.am   38  ASN38      -0.0877
     44  N        -12.1360   50.8360   44.2710 N.am   39  ALA39      -0.1966
     45  CA       -10.9170   50.0830   44.2200 C.3    39  ALA39       0.1728
     46  C        -10.0180   50.6820   43.1570 C.2    39  ALA39       0.2617
     47  O        -10.4620   51.3610   42.2590 O.2    39  ALA39      -0.2715
     48  CB       -11.2040   48.6350   43.9210 C.3    39  ALA39       0.0334
     49  N         -8.7330   50.4600   43.3020 N.am   40  GLY40      -0.1940
     50  CA        -7.7750   50.9690   42.3600 C.3    40  GLY40       0.2014
     51  C         -6.6470   49.9990   42.5320 C.2    40  GLY40       0.2638
     52  O         -5.9240   50.0410   43.5510 O.2    40  GLY40      -0.2714
     53  N         -6.5520   49.0430   41.6200 N.am   41  HIS41      -0.1973
     54  CA        -5.4980   48.0480   41.7130 C.3    41  HIS41       0.1656
     55  C         -4.3910   48.5470   40.8060 C.2    41  HIS41       0.2291
     56  O         -4.5640   49.5420   40.1310 O.2    41  HIS41      -0.2864
     57  CB        -6.0560   46.6850   41.3420 C.3    41  HIS41       0.0771
     58  CG        -7.2120   46.2640   42.2090 C.ar   41  HIS41       0.0820
     59  ND1       -7.6130   44.9510   42.3430 N.ar   41  HIS41      -0.2267
     60  CD2       -8.0460   46.9880   42.9970 C.ar   41  HIS41       0.1154
     61  CE1       -8.6430   44.8840   43.1720 C.ar   41  HIS41       0.1986
     62  NE2       -8.9240   46.1080   43.5810 N.ar   41  HIS41      -0.2212
     63  N        -23.8150   60.1320   48.1860 N.3   114  ASP114     -0.1239
     64  CA       -22.5150   60.0100   48.8490 C.3   114  ASP114      0.1674
     65  C        -21.9620   61.4010   49.2350 C.2   114  ASP114      0.2266
     66  O        -21.5590   61.6320   50.3830 O.2   114  ASP114     -0.2867
     67  CB       -21.5170   59.3280   47.9010 C.3   114  ASP114      0.1410
     68  CG       -20.6090   58.3710   48.6100 C.2   114  ASP114      0.3668
     69  OD1      -19.5270   58.7610   49.1100 O.co2 114  ASP114     -0.2456
     70  OD2      -20.9910   57.1920   48.6560 O.co2 114  ASP114     -0.2456
     71  N        -16.3320   59.9280   56.8060 N.3   126  ILE126     -0.1231
     72  CA       -15.7000   58.6470   56.5830 C.3   126  ILE126      0.1692
     73  C        -14.4810   58.7680   55.6930 C.2   126  ILE126      0.2593
     74  O        -13.5260   57.9830   55.8230 O.2   126  ILE126     -0.2718
     75  CB       -16.7000   57.6810   55.9210 C.3   126  ILE126      0.0266
     76  CG1      -17.8270   57.3510   56.9100 C.3   126  ILE126      0.0019
     77  CG2      -15.9830   56.4520   55.3530 C.3   126  ILE126      0.0020
     78  CD1      -18.8770   56.4000   56.3760 C.3   126  ILE126      0.0001
     79  N        -14.5250   59.7370   54.7740 N.am  127  GLY127     -0.1942
     80  CA       -13.4380   59.9590   53.8360 C.3   127  GLY127      0.2014
     81  C        -13.6100   58.9710   52.7010 C.2   127  GLY127      0.2640
     82  O        -12.6500   58.3130   52.3040 O.2   127  GLY127     -0.2714
     83  N        -14.8290   58.8380   52.1820 N.am  128  THR128     -0.1936
     84  CA       -15.0630   57.9030   51.0930 C.3   128  THR128      0.2028
     85  C        -14.4150   58.3570   49.7920 C.2   128  THR128      0.2643
     86  O        -14.0660   59.5290   49.6350 O.2   128  THR128     -0.2714
     87  CB       -16.5410   57.7460   50.7750 C.3   128  THR128      0.1808
     88  OG1      -17.0010   58.9420   50.1170 O.3   128  THR128     -0.2208
     89  CG2      -17.3490   57.4360   52.0350 C.3   128  THR128      0.0379
     90  N        -14.3440   57.4260   48.8370 N.am  129  THR129     -0.1936
     91  CA       -13.7480   57.6470   47.5030 C.3   129  THR129      0.2028
     92  C        -14.5480   58.4660   46.4830 C.2   129  THR129      0.2643
     93  O        -14.0830   58.6260   45.3500 O.2   129  THR129     -0.2714
     94  CB       -13.3700   56.3140   46.7890 C.3   129  THR129      0.1808
     95  OG1      -14.5360   55.4920   46.6630 O.3   129  THR129     -0.2208
     96  CG2      -12.2680   55.5570   47.5340 C.3   129  THR129      0.0379
     97  N        -15.7410   58.9410   46.8220 N.am  130  GLY130     -0.1939
     98  CA       -16.4760   59.7470   45.8580 C.3   130  GLY130      0.2014
     99  C        -17.4610   59.0660   44.9110 C.2   130  GLY130      0.2638
    100  O        -18.3840   59.7080   44.4340 O.2   130  GLY130     -0.2714
    101  N        -17.2570   57.7930   44.5880 N.am  131  ARG131     -0.1977
    102  CA       -18.1980   57.0600   43.7310 C.3   131  ARG131      0.1597
    103  C        -19.4620   57.0180   44.5900 C.2   131  ARG131      0.2287
    104  O        -19.5090   57.7000   45.6020 O.2   131  ARG131     -0.2864
    105  CB       -17.6660   55.6570   43.5000 C.3   131  ARG131      0.0334
    106  CG       -16.1510   55.6390   43.4190 C.3   131  ARG131      0.0492
    107  CD       -15.7620   56.4960   42.2750 C.3   131  ARG131      0.2205
    108  NE       -14.8470   57.5930   42.5300 N.pl3 131  ARG131     -0.0865
    109  CZ       -13.6010   57.5020   42.0970 C.cat 131  ARG131      0.5346
    110  NH1      -13.2270   56.3910   41.4780 N.pl3 131  ARG131      0.1354
    111  NH2      -12.7780   58.5390   42.1570 N.pl3 131  ARG131      0.1354
    112  N        -20.6750   54.2040   45.9970 N.3   133  ILE133     -0.1231
    113  CA       -20.6220   52.8490   46.5110 C.3   133  ILE133      0.1692
    114  C        -21.6190   52.5880   47.6320 C.2   133  ILE133      0.2592
    115  O        -22.4480   51.6670   47.5440 O.2   133  ILE133     -0.2718
    116  CB       -19.2020   52.5300   46.9730 C.3   133  ILE133      0.0266
    117  CG1      -18.2320   52.8240   45.8250 C.3   133  ILE133      0.0019
    118  CG2      -19.1100   51.0790   47.4320 C.3   133  ILE133      0.0020
    119  CD1      -18.4220   51.9550   44.5950 C.3   133  ILE133      0.0001
    120  N        -21.5540   53.4320   48.6650 N.am  134  GLY134     -0.1957
    121  CA       -22.4210   53.2990   49.8080 C.3   134  GLY134      0.1869
    122  C        -23.8760   53.2840   49.4400 C.2   134  GLY134      0.2309
    123  O        -24.5510   52.2340   49.5710 O.2   134  GLY134     -0.2863
    124  N        -11.3760   43.4530   46.5910 N.3   223  ALA223     -0.1231
    125  CA       -11.1400   44.8960   46.6620 C.3   223  ALA223      0.1694
    126  C        -10.9970   45.2580   48.1690 C.2   223  ALA223      0.2591
    127  O        -11.3120   44.4620   49.0460 O.2   223  ALA223     -0.2718
    128  CB       -12.3140   45.6710   46.0550 C.3   223  ALA223      0.0304
    129  N        -10.5380   46.4660   48.4500 N.am  224  GLN224     -0.1979
    130  CA       -10.3290   46.9260   49.8270 C.3   224  GLN224      0.1601
    131  C         -9.6380   45.8540   50.6980 C.2   224  GLN224      0.2287
    132  O         -8.9480   44.9760   50.1680 O.2   224  GLN224     -0.2864
    133  CB       -11.6680   47.3860   50.4300 C.3   224  GLN224      0.0394
    134  CG       -12.2040   48.6590   49.8260 C.3   224  GLN224      0.0908
    135  CD       -12.9640   48.4660   48.4880 C.2   224  GLN224      0.2608
    136  OE1      -13.8460   47.6170   48.3690 O.2   224  GLN224     -0.2717
    137  NE2      -12.6720   49.3290   47.5150 N.am  224  GLN224     -0.0878
    138  N        -11.8860   47.0430   56.6720 N.3   228  LEU228     -0.1245
    139  CA       -12.8190   47.9270   55.9680 C.3   228  LEU228      0.1561
    140  C        -14.1390   47.1670   55.7960 C.2   228  LEU228      0.2260
    141  O        -15.1200   47.6930   55.2130 O.2   228  LEU228     -0.2867
    142  CB       -12.2430   48.3830   54.5980 C.3   228  LEU228      0.0270
    143  CG       -11.1770   49.4940   54.5910 C.3   228  LEU228      0.0019
    144  CD1      -10.6800   49.7630   53.1750 C.3   228  LEU228      0.0001
    145  CD2      -11.7140   50.8070   55.1990 C.3   228  LEU228      0.0001
    146  N        -16.1470   53.6500   59.8370 N.3   237  TYR237     -0.1227
    147  CA       -15.1180   54.0100   58.8780 C.3   237  TYR237      0.1736
    148  C        -14.7690   52.7670   58.0850 C.2   237  TYR237      0.2595
    149  O        -13.6920   52.1770   58.1980 O.2   237  TYR237     -0.2718
    150  CB       -13.9190   54.5990   59.6170 C.3   237  TYR237      0.0548
    151  CG       -14.3270   55.8420   60.3630 C.ar  237  TYR237     -0.0200
    152  CD1      -14.7360   56.9630   59.6770 C.ar  237  TYR237     -0.0009
    153  CD2      -14.3960   55.8640   61.7490 C.ar  237  TYR237     -0.0009
    154  CE1      -15.2150   58.0750   60.3360 C.ar  237  TYR237      0.0417
    155  CE2      -14.8810   56.9830   62.4240 C.ar  237  TYR237      0.0417
    156  CZ       -15.2980   58.0850   61.7010 C.ar  237  TYR237      0.1957
    157  OH       -15.8780   59.1720   62.3270 O.3   237  TYR237     -0.2866
    158  N        -15.7230   52.3730   57.2660 N.am  238  VAL238     -0.1966
    159  CA       -15.5690   51.1740   56.4820 C.3   238  VAL238      0.1727
    160  C        -16.2190   51.3250   55.1030 C.2   238  VAL238      0.2617
    161  O        -16.7870   52.4050   54.7760 O.2   238  VAL238     -0.2715
    162  CB       -16.2530   50.0160   57.2290 C.3   238  VAL238      0.0290
    163  CG1      -15.4490   49.6500   58.4650 C.3   238  VAL238      0.0023
    164  CG2      -17.7010   50.4160   57.5680 C.3   238  VAL238      0.0023
    165  N        -16.1260   50.2640   54.2960 N.am  239  THR239     -0.1937
    166  CA       -16.7730   50.3130   52.9980 C.3   239  THR239      0.2028
    167  C        -18.0730   49.5580   53.2290 C.2   239  THR239      0.2642
    168  O        -18.1500   48.7610   54.1690 O.2   239  THR239     -0.2714
    169  CB       -15.8830   49.7650   51.7930 C.3   239  THR239      0.1808
    170  OG1      -16.5030   50.1250   50.5420 O.3   239  THR239     -0.2208
    171  CG2      -15.6770   48.2470   51.8530 C.3   239  THR239      0.0379
    172  N        -19.0720   49.7920   52.3750 N.am  240  SER240     -0.1949
    173  CA       -20.3710   49.1970   52.5310 C.3   240  SER240      0.1924
    174  C        -20.5730   47.7620   52.1190 C.2   240  SER240      0.2314
    175  O        -21.7260   47.3550   51.8950 O.2   240  SER240     -0.2863
    176  CB       -21.3990   50.0880   51.8980 C.3   240  SER240      0.2116
    177  OG       -21.1540   51.4170   52.3620 O.3   240  SER240     -0.2180
    178  N         -3.1490   53.5630   55.2230 N.3   272  ARG272     -0.1231
    179  CA        -4.5800   53.6140   55.3380 C.3   272  ARG272      0.1694
    180  C         -4.9620   54.8720   54.5690 C.2   272  ARG272      0.2592
    181  O         -4.1970   55.8240   54.5240 O.2   272  ARG272     -0.2718
    182  CB        -5.0180   53.6960   56.8200 C.3   272  ARG272      0.0321
    183  CG        -6.3670   53.0210   57.1320 C.3   272  ARG272      0.0489
    184  CD        -7.1810   53.6570   58.2950 C.3   272  ARG272      0.2205
    185  NE        -8.6340   53.5920   58.0410 N.pl3 272  ARG272     -0.0865
    186  CZ        -9.5110   52.9340   58.8140 C.cat 272  ARG272      0.5346
    187  NH1       -9.1540   52.2790   59.9340 N.pl3 272  ARG272      0.1354
    188  NH2      -10.7680   52.8230   58.3930 N.pl3 272  ARG272      0.1354
    189  N         -6.0790   54.8240   53.8610 N.am  273  VAL273     -0.1966
    190  CA        -6.5680   55.9950   53.1760 C.3   273  VAL273      0.1727
    191  C         -8.0240   56.0730   53.5820 C.2   273  VAL273      0.2617
    192  O         -8.8010   55.1050   53.4410 O.2   273  VAL273     -0.2715
    193  CB        -6.3160   56.0140   51.6210 C.3   273  VAL273      0.0290
    194  CG1       -7.3360   55.1340   50.8370 C.3   273  VAL273      0.0023
    195  CG2       -6.3200   57.4720   51.1370 C.3   273  VAL273      0.0023
    196  N         -8.3480   57.2290   54.1470 N.am  274  GLY274     -0.1940
    197  CA        -9.6630   57.4850   54.6880 C.3   274  GLY274      0.2014
    198  C         -9.5050   57.7030   56.2120 C.2   274  GLY274      0.2638
    199  O         -8.4260   57.4670   56.8120 O.2   274  GLY274     -0.2714
    200  N        -10.5810   58.1950   56.8250 N.am  275  ALA275     -0.1977
    201  CA       -10.6540   58.4350   58.2490 C.3   275  ALA275      0.1597
    202  C        -10.7920   57.0990   58.9790 C.2   275  ALA275      0.2287
    203  O        -11.4760   56.1980   58.4750 O.2   275  ALA275     -0.2864
    204  CB       -11.8820   59.2440   58.5290 C.3   275  ALA275      0.0319
    205  N         -5.3260   60.7940   46.9100 N.3   303  ARG303     -0.1245
    206  CA        -5.0110   61.0740   48.3190 C.3   303  ARG303      0.1563
    207  C         -3.7810   60.3560   48.8230 C.2   303  ARG303      0.2260
    208  O         -3.5650   59.1660   48.5380 O.2   303  ARG303     -0.2867
    209  CB        -6.1840   60.6710   49.2320 C.3   303  ARG303      0.0307
    210  CG        -7.5090   61.3730   48.9160 C.3   303  ARG303      0.0489
    211  CD        -8.6420   60.9480   49.8420 C.3   303  ARG303      0.2205
    212  NE        -8.8890   59.5070   49.8160 N.pl3 303  ARG303     -0.0865
    213  CZ       -10.0540   58.9940   50.2100 C.cat 303  ARG303      0.5346
    214  NH1      -11.0230   59.7810   50.6420 N.pl3 303  ARG303      0.1354
    215  NH2      -10.2830   57.6880   50.1030 N.pl3 303  ARG303      0.1354
@<TRIPOS>BOND
     1    56    55    2
     2    55    54    1
     3    57    54    1
     4    57    58    1
     5   110   109    1
     6    53    54    1
     7    53    51   am
     8   109   111    1
     9   109   108    2
    10    58    59   ar
    11    58    60   ar
    12    47    46    2
    13   107   108    1
    14   107   106    1
    15    59    61   ar
    16    50    51    1
    17    50    49    1
    18    51    52    2
    19    60    62   ar
    20    30    29    2
    21    46    49   am
    22    46    45    1
    23    61    62   ar
    24   106   105    1
    25    36    37    1
    26   105   102    1
    27    29    28    1
    28   102   101    1
    29   102   103    1
    30    48    45    1
    31    45    44    1
    32    44    38   am
    33   100    99    2
    34    37    38    1
    35    37    40    1
    36    38    39    2
    37   101    99   am
    38   103   104    2
    39   119   117    1
    40    99    98    1
    41    28    31    1
    42    28    27    1
    43    93    92    2
    44    42    41    2
    45    31    32    1
    46   117   116    1
    47    98    97    1
    48    40    41    1
    49   112   113    1
    50   128   125    1
    51    41    43   am
    52    92    97   am
    53    92    91    1
    54   113   116    1
    55   113   114    1
    56   124   125    1
    57   125   126    1
    58    95    94    1
    59    94    91    1
    60    94    96    1
    61   205   206    1
    62   116   118    1
    63    32    33    1
    64    33    34    1
    65    91    90    1
    66   137   135   am
    67   115   114    2
    68   114   120   am
    69    34    35    1
    70    67    68    1
    71    67    64    1
    72   126   129   am
    73   126   127    2
    74    63    64    1
    75    25    24   ar
    76   206   207    1
    77   206   209    1
    78   136   135    2
    79   129   130    1
    80   135   134    1
    81   208   207    2
    82    68    70   ar
    83    68    69   ar
    84   120   121    1
    85    24    26   ar
    86    24    23    1
    87    90    85   am
    88    64    65    1
    89    20    23    1
    90    20    21    1
    91    20    19    1
    92   210   209    1
    93   210   211    1
    94    22    21    2
    95    65    66    2
    96   122   123    2
    97   122   121    1
    98    19    17   am
    99    86    85    2
   100    85    84    1
   101   212   211    1
   102   212   213    2
   103   134   133    1
   104   130   133    1
   105   130   131    1
   106   215   213    1
   107    88    87    1
   108   132   131    2
   109   213   214    1
   110   170   169    1
   111    17    16    1
   112    17    18    2
   113    87    84    1
   114    87    89    1
   115   194   193    1
   116    84    83    1
   117    16    15    1
   118   195   193    1
   119   193   190    1
   120   169   171    1
   121   169   166    1
   122   175   174    2
   123   176   177    1
   124   176   173    1
   125   174   173    1
   126    83    81   am
   127    82    81    2
   128   172   173    1
   129   172   167   am
   130    15     3   am
   131    81    80    1
   132     4     3    2
   133   166   167    1
   134   166   165    1
   135   144   143    1
   136   190   191    1
   137   190   189    1
   138   167   168    2
   139     3     2    1
   140   192   191    2
   141   191   196   am
   142    80    79    1
   143   189   180   am
   144   196   197    1
   145   165   160   am
   146   181   180    2
   147   180   179    1
   148   143   142    1
   149   143   145    1
   150   142   139    1
   151   197   198    1
   152    79    73   am
   153   161   160    2
   154     2     1    1
   155     2     5    1
   156   160   159    1
   157   141   140    2
   158   178   179    1
   159   179   182    1
   160    77    75    1
   161     5     6    1
   162    73    74    2
   163    73    72    1
   164   140   139    1
   165    75    72    1
   166    75    76    1
   167   139   138    1
   168   198   199    2
   169   198   200   am
   170    78    76    1
   171   159   162    1
   172   159   158    1
   173    72    71    1
   174   182   183    1
   175   200   201    1
   176     6     7   ar
   177     6     8   ar
   178   183   184    1
   179   162   164    1
   180   162   163    1
   181   158   148   am
   182    11     8   ar
   183    11    13   ar
   184     7     9   ar
   185     8    10   ar
   186   185   184    1
   187   185   186    2
   188   148   149    2
   189   148   147    1
   190   201   204    1
   191   201   202    1
   192   188   186    1
   193   203   202    2
   194   186   187    1
   195   147   150    1
   196   147   146    1
   197    13    14   ar
   198     9    10   ar
   199    10    12   ar
   200   150   151    1
   201   152   154   ar
   202   152   151   ar
   203    14    12   ar
   204   154   156   ar
   205   151   153   ar
   206   156   157    1
   207   156   155   ar
   208   153   155   ar
