@<TRIPOS>MOLECULE
tmp/1nhuB00.pdb
 124 120 0 0 0
SMALL
GASTEIGER

@<TRIPOS>ATOM
      1  N         -8.7280   37.3650  -23.7360 N.3   414  LEU414     -0.1245
      2  CA        -9.5000   36.8570  -24.8700 C.3   414  LEU414      0.1561
      3  C        -10.9900   37.1560  -24.6940 C.2   414  LEU414      0.2260
      4  O        -11.6740   37.5980  -25.6260 O.2   414  LEU414     -0.2867
      5  CB        -9.2980   35.3350  -24.9690 C.3   414  LEU414      0.0270
      6  CG        -9.9920   34.4910  -26.0600 C.3   414  LEU414      0.0019
      7  CD1       -9.5390   34.8850  -27.4660 C.3   414  LEU414      0.0001
      8  CD2       -9.6660   33.0100  -25.8070 C.3   414  LEU414      0.0001
      9  N        -11.9470   40.9960  -24.7550 N.3   417  ARG417     -0.1231
     10  CA       -11.8190   41.4860  -26.1290 C.3   417  ARG417      0.1694
     11  C        -12.8920   40.9700  -27.0580 C.2   417  ARG417      0.2591
     12  O        -13.5490   41.7400  -27.7540 O.2   417  ARG417     -0.2718
     13  CB       -10.4630   41.0920  -26.7140 C.3   417  ARG417      0.0321
     14  CG        -9.2830   41.7210  -25.9950 C.3   417  ARG417      0.0489
     15  CD        -7.9640   41.1260  -26.4970 C.3   417  ARG417      0.2205
     16  NE        -7.5510   41.7480  -27.7520 N.pl3 417  ARG417     -0.0865
     17  CZ        -6.5600   41.3020  -28.5270 C.cat 417  ARG417      0.5346
     18  NH1       -5.8710   40.2120  -28.1810 N.pl3 417  ARG417      0.1354
     19  NH2       -6.2400   41.9600  -29.6350 N.pl3 417  ARG417      0.1354
     20  N        -13.0690   39.6590  -27.0890 N.am  418  MET418     -0.1979
     21  CA       -14.0490   39.0730  -27.9970 C.3   418  MET418      0.1605
     22  C        -15.5170   39.2570  -27.6130 C.2   418  MET418      0.2287
     23  O        -16.3610   39.4200  -28.4810 O.2   418  MET418     -0.2864
     24  CB       -13.7440   37.5920  -28.1660 C.3   418  MET418      0.0413
     25  CG       -12.4770   37.3310  -29.0210 C.3   418  MET418      0.0598
     26  SD       -12.3400   35.5990  -29.2860 S.3   418  MET418     -0.1393
     27  CE       -13.3850   35.4010  -30.7450 C.3   418  MET418      0.0692
     28  N         -2.3830   40.7000  -28.9160 N.3   469  LEU469     -0.1231
     29  CA        -2.0350   39.4210  -28.3350 C.3   469  LEU469      0.1693
     30  C         -2.7660   38.3390  -29.0900 C.2   469  LEU469      0.2592
     31  O         -3.8960   38.5390  -29.5380 O.2   469  LEU469     -0.2718
     32  CB        -2.4540   39.3540  -26.8570 C.3   469  LEU469      0.0284
     33  CG        -1.7330   40.2790  -25.8730 C.3   469  LEU469      0.0019
     34  CD1       -2.1430   39.9210  -24.4300 C.3   469  LEU469      0.0001
     35  CD2       -0.2350   40.1400  -26.0320 C.3   469  LEU469      0.0001
     36  N         -2.1380   37.1770  -29.2060 N.am  470  HIS470     -0.1962
     37  CA        -2.7420   36.0670  -29.9090 C.3   470  HIS470      0.1787
     38  C         -2.0470   34.8100  -29.4270 C.2   470  HIS470      0.2621
     39  O         -1.0660   34.8910  -28.6950 O.2   470  HIS470     -0.2715
     40  CB        -2.5580   36.2080  -31.4300 C.3   470  HIS470      0.0785
     41  CG        -1.1360   36.0700  -31.8810 C.ar  470  HIS470      0.0821
     42  ND1       -0.2610   37.1330  -31.9170 N.ar  470  HIS470     -0.2267
     43  CD2       -0.4320   34.9880  -32.2920 C.ar  470  HIS470      0.1154
     44  CE1        0.9210   36.7150  -32.3360 C.ar  470  HIS470      0.1986
     45  NE2        0.8430   35.4170  -32.5700 N.ar  470  HIS470     -0.2212
     46  N         -2.5620   33.6580  -29.8520 N.am  471  SER471     -0.1936
     47  CA        -2.0220   32.3680  -29.4500 C.3   471  SER471      0.2055
     48  C         -2.0870   32.2580  -27.9300 C.2   471  SER471      0.2643
     49  O         -1.0790   32.0330  -27.2560 O.2   471  SER471     -0.2714
     50  CB        -0.5760   32.1930  -29.9390 C.3   471  SER471      0.2130
     51  OG        -0.5320   31.9080  -31.3350 O.3   471  SER471     -0.2179
     52  N         -3.2880   32.4510  -27.4050 N.am  472  TYR472     -0.1973
     53  CA        -3.5280   32.3480  -25.9820 C.3   472  TYR472      0.1639
     54  C         -3.2770   30.8960  -25.6710 C.2   472  TYR472      0.2290
     55  O         -3.1950   30.0880  -26.5850 O.2   472  TYR472     -0.2864
     56  CB        -4.9800   32.7210  -25.6840 C.3   472  TYR472      0.0560
     57  CG        -5.2410   34.2050  -25.7750 C.ar  472  TYR472     -0.0198
     58  CD1       -4.9490   35.0520  -24.7020 C.ar  472  TYR472     -0.0009
     59  CD2       -5.7710   34.7680  -26.9370 C.ar  472  TYR472     -0.0009
     60  CE1       -5.1810   36.4240  -24.7780 C.ar  472  TYR472      0.0417
     61  CE2       -6.0120   36.1490  -27.0240 C.ar  472  TYR472      0.0417
     62  CZ        -5.7180   36.9660  -25.9410 C.ar  472  TYR472      0.1957
     63  OH        -5.9930   38.3200  -26.0100 O.3   472  TYR472     -0.2866
     64  N         -8.0160   29.2370  -23.1610 N.3   477  ILE477     -0.1245
     65  CA        -9.0220   29.1150  -24.2050 C.3   477  ILE477      0.1561
     66  C        -10.0850   28.1350  -23.7600 C.2   477  ILE477      0.2260
     67  O        -11.2780   28.4080  -23.8610 O.2   477  ILE477     -0.2867
     68  CB        -8.4020   28.6400  -25.5170 C.3   477  ILE477      0.0252
     69  CG1       -7.5030   29.7520  -26.0690 C.3   477  ILE477      0.0019
     70  CG2       -9.5070   28.2670  -26.5210 C.3   477  ILE477      0.0019
     71  CD1       -6.5770   29.3180  -27.1670 C.3   477  ILE477      0.0001
     72  N        -17.1640   31.6230  -29.2390 N.3   492  LEU492     -0.1231
     73  CA       -16.2660   32.6700  -29.7110 C.3   492  LEU492      0.1693
     74  C        -16.3290   32.9230  -31.2160 C.2   492  LEU492      0.2591
     75  O        -16.1270   34.0520  -31.6670 O.2   492  LEU492     -0.2718
     76  CB       -14.8240   32.3450  -29.2980 C.3   492  LEU492      0.0284
     77  CG       -14.5330   32.4090  -27.8000 C.3   492  LEU492      0.0019
     78  CD1      -13.0490   32.1290  -27.5530 C.3   492  LEU492      0.0001
     79  CD2      -14.8880   33.7910  -27.2650 C.3   492  LEU492      0.0001
     80  N        -16.5970   31.8860  -32.0050 N.am  493  ARG493     -0.1980
     81  CA       -16.6650   32.0950  -33.4490 C.3   493  ARG493      0.1597
     82  C        -17.7520   33.1220  -33.7780 C.2   493  ARG493      0.2287
     83  O        -17.5730   33.9680  -34.6500 O.2   493  ARG493     -0.2864
     84  CB       -16.9130   30.7650  -34.1800 C.3   493  ARG493      0.0334
     85  CG       -17.9920   29.8680  -33.5630 C.3   493  ARG493      0.0492
     86  CD       -17.6850   28.3840  -33.8630 C.3   493  ARG493      0.2205
     87  NE       -18.6220   27.4230  -33.2740 N.pl3 493  ARG493     -0.0865
     88  CZ       -19.8870   27.2600  -33.6690 C.cat 493  ARG493      0.5346
     89  NH1      -20.3870   28.0020  -34.6570 N.pl3 493  ARG493      0.1354
     90  NH2      -20.6500   26.3330  -33.0930 N.pl3 493  ARG493      0.1354
     91  N        -16.5250   36.7530  -33.0490 N.3   496  ARG496     -0.1245
     92  CA       -15.6110   37.3130  -34.0400 C.3   496  ARG496      0.1563
     93  C        -16.4200   37.8640  -35.2330 C.2   496  ARG496      0.2260
     94  O        -16.0880   38.9040  -35.7890 O.2   496  ARG496     -0.2867
     95  CB       -14.6290   36.2410  -34.5280 C.3   496  ARG496      0.0307
     96  CG       -13.7400   36.7210  -35.6620 C.3   496  ARG496      0.0489
     97  CD       -12.5670   35.8000  -35.8620 C.3   496  ARG496      0.2205
     98  NE       -11.7710   36.1800  -37.0310 N.pl3 496  ARG496     -0.0865
     99  CZ       -12.0830   35.8600  -38.2830 C.cat 496  ARG496      0.5346
    100  NH1      -13.1730   35.1490  -38.5270 N.pl3 496  ARG496      0.1354
    101  NH2      -11.3100   36.2570  -39.2940 N.pl3 496  ARG496      0.1354
    102  N         -8.1630   42.6160  -33.8920 N.3   523  TRP523     -0.1241
    103  CA        -8.0660   41.1500  -33.8050 C.3   523  TRP523      0.1605
    104  C         -9.0960   40.4010  -34.6410 C.2   523  TRP523      0.2264
    105  O         -8.9440   39.1990  -34.8930 O.2   523  TRP523     -0.2867
    106  CB        -8.2440   40.6580  -32.3580 C.3   523  TRP523      0.0550
    107  CG        -9.5710   41.0690  -31.7200 C.ar  523  TRP523      0.0003
    108  CD1       -9.8010   42.1820  -30.9560 C.ar  523  TRP523      0.0946
    109  CD2      -10.8370   40.3990  -31.8360 C.ar  523  TRP523      0.0152
    110  NE1      -11.1270   42.2470  -30.5920 N.ar  523  TRP523     -0.2442
    111  CE2      -11.7870   41.1720  -31.1210 C.ar  523  TRP523      0.0810
    112  CE3      -11.2650   39.2270  -32.4770 C.ar  523  TRP523      0.0012
    113  CZ2      -13.1410   40.8090  -31.0320 C.ar  523  TRP523      0.0191
    114  CZ3      -12.6120   38.8670  -32.3860 C.ar  523  TRP523      0.0001
    115  CH2      -13.5310   39.6570  -31.6700 C.ar  523  TRP523      0.0015
    116  N         -4.8060   42.7290  -40.7820 N.3   528  LYS528     -0.1245
    117  CA        -4.6660   43.6090  -39.6350 C.3   528  LYS528      0.1561
    118  C         -4.2090   45.0020  -40.0520 C.2   528  LYS528      0.2260
    119  O         -3.7100   45.1910  -41.1610 O.2   528  LYS528     -0.2867
    120  CB        -3.6640   43.0050  -38.6470 C.3   528  LYS528      0.0271
    121  CG        -3.8120   41.5040  -38.4110 C.3   528  LYS528      0.0035
    122  CD        -5.0350   41.1320  -37.5880 C.3   528  LYS528      0.0206
    123  CE        -5.0510   39.6250  -37.3440 C.3   528  LYS528      0.1093
    124  NZ        -6.1930   39.1320  -36.5290 N.3   528  LYS528     -0.1314
@<TRIPOS>BOND
     1   119   118    2
     2   116   117    1
     3   118   117    1
     4   117   120    1
     5   101    99    1
     6   120   121    1
     7   100    99    1
     8   121   122    1
     9    99    98    2
    10   122   123    1
    11   123   124    1
    12    98    97    1
    13    97    96    1
    14    94    93    2
    15    96    95    1
    16    93    92    1
    17   105   104    2
    18    89    88    1
    19    83    82    2
    20   104   103    1
    21    95    92    1
    22    84    85    1
    23    84    81    1
    24    92    91    1
    25   102   103    1
    26    86    85    1
    27    86    87    1
    28   103   106    1
    29    82    81    1
    30    88    87    2
    31    88    90    1
    32    81    80    1
    33    45    44   ar
    34    45    43   ar
    35   112   114   ar
    36   112   109   ar
    37   114   115   ar
    38   106   107    1
    39    44    42   ar
    40    43    41   ar
    41    80    74   am
    42    42    41   ar
    43    41    40    1
    44   109   107   ar
    45   109   111   ar
    46   107   108   ar
    47   115   113   ar
    48    75    74    2
    49    40    37    1
    50    51    50    1
    51    74    73    1
    52   111   113   ar
    53   111   110   ar
    54   108   110   ar
    55    27    26    1
    56    50    47    1
    57    37    38    1
    58    37    36    1
    59    46    47    1
    60    46    38   am
    61    73    76    1
    62    73    72    1
    63    19    17    1
    64    31    30    2
    65    47    48    1
    66    38    39    2
    67    76    77    1
    68    26    25    1
    69    36    30   am
    70    30    29    1
    71    25    24    1
    72    28    29    1
    73    17    18    1
    74    17    16    2
    75    23    22    2
    76    29    32    1
    77    24    21    1
    78    21    22    1
    79    21    20    1
    80    48    52   am
    81    48    49    2
    82    77    78    1
    83    77    79    1
    84    12    11    2
    85    16    15    1
    86     7     6    1
    87    52    53    1
    88    71    69    1
    89    20    11   am
    90    11    10    1
    91    61    59   ar
    92    61    62   ar
    93    59    57   ar
    94    32    33    1
    95    13    10    1
    96    13    14    1
    97    55    54    2
    98    70    68    1
    99    15    14    1
   100    10     9    1
   101    69    68    1
   102     6     8    1
   103     6     5    1
   104    35    33    1
   105    63    62    1
   106    53    56    1
   107    53    54    1
   108    62    60   ar
   109    33    34    1
   110    57    56    1
   111    57    58   ar
   112     4     3    2
   113    68    65    1
   114     5     2    1
   115     2     3    1
   116     2     1    1
   117    60    58   ar
   118    65    66    1
   119    65    64    1
   120    67    66    2
