@<TRIPOS>MOLECULE
tmp/1nhvB00.pdb
 135 130 0 0 0
SMALL
GASTEIGER

@<TRIPOS>ATOM
      1  N         -8.2720   38.6010  -25.9130 N.3   414  LEU414     -0.1245
      2  CA        -8.9520   38.0360  -27.0670 C.3   414  LEU414      0.1561
      3  C        -10.4520   38.2520  -26.9620 C.2   414  LEU414      0.2260
      4  O        -11.1060   38.6420  -27.9290 O.2   414  LEU414     -0.2867
      5  CB        -8.6420   36.5410  -27.1340 C.3   414  LEU414      0.0270
      6  CG        -9.4730   35.6250  -28.0230 C.3   414  LEU414      0.0019
      7  CD1       -9.3190   36.0220  -29.5120 C.3   414  LEU414      0.0001
      8  CD2       -9.0200   34.1780  -27.7600 C.3   414  LEU414      0.0001
      9  N        -11.4310   42.1430  -27.1100 N.3   417  ARG417     -0.1231
     10  CA       -11.2960   42.6360  -28.4700 C.3   417  ARG417      0.1694
     11  C        -12.4370   42.1900  -29.3860 C.2   417  ARG417      0.2591
     12  O        -13.1570   43.0180  -29.9470 O.2   417  ARG417     -0.2718
     13  CB        -9.9310   42.2100  -29.0420 C.3   417  ARG417      0.0321
     14  CG        -8.7540   42.8910  -28.3240 C.3   417  ARG417      0.0489
     15  CD        -7.3640   42.4800  -28.8050 C.3   417  ARG417      0.2205
     16  NE        -6.9460   43.1310  -30.0430 N.pl3 417  ARG417     -0.0865
     17  CZ        -5.9930   42.6520  -30.8370 C.cat 417  ARG417      0.5346
     18  NH1       -5.3740   41.5290  -30.5130 N.pl3 417  ARG417      0.1354
     19  NH2       -5.6660   43.2800  -31.9580 N.pl3 417  ARG417      0.1354
     20  N        -12.6160   40.8810  -29.5040 N.am  418  MET418     -0.1979
     21  CA       -13.6370   40.3160  -30.3740 C.3   418  MET418      0.1605
     22  C        -15.1160   40.5120  -29.9950 C.2   418  MET418      0.2287
     23  O        -15.9770   40.6590  -30.8690 O.2   418  MET418     -0.2864
     24  CB       -13.3650   38.8240  -30.5490 C.3   418  MET418      0.0413
     25  CG       -12.0220   38.5120  -31.1770 C.3   418  MET418      0.0598
     26  SD       -11.9790   36.8040  -31.7590 S.3   418  MET418     -0.1393
     27  CE       -12.8000   37.0060  -33.3450 C.3   418  MET418      0.0692
     28  N         -1.9030   42.2620  -31.1730 N.3   469  LEU469     -0.1231
     29  CA        -1.5880   41.0010  -30.5140 C.3   469  LEU469      0.1693
     30  C         -2.2780   39.8420  -31.2240 C.2   469  LEU469      0.2592
     31  O         -3.3830   39.9930  -31.7450 O.2   469  LEU469     -0.2718
     32  CB        -2.0480   41.0240  -29.0560 C.3   469  LEU469      0.0284
     33  CG        -1.4460   42.0500  -28.0900 C.3   469  LEU469      0.0019
     34  CD1       -1.9630   41.7570  -26.6940 C.3   469  LEU469      0.0001
     35  CD2        0.0730   41.9950  -28.1020 C.3   469  LEU469      0.0001
     36  N         -1.6200   38.6860  -31.2330 N.am  470  HIS470     -0.1962
     37  CA        -2.1630   37.4820  -31.8570 C.3   470  HIS470      0.1787
     38  C         -1.5320   36.2080  -31.2990 C.2   470  HIS470      0.2621
     39  O         -0.7730   36.2570  -30.3310 O.2   470  HIS470     -0.2715
     40  CB        -2.0040   37.5450  -33.3850 C.3   470  HIS470      0.0785
     41  CG        -0.6100   37.8160  -33.8520 C.ar  470  HIS470      0.0821
     42  ND1        0.2280   36.8230  -34.3170 N.ar  470  HIS470     -0.2267
     43  CD2        0.0830   38.9740  -33.9630 C.ar  470  HIS470      0.1154
     44  CE1        1.3750   37.3590  -34.6970 C.ar  470  HIS470      0.1986
     45  NE2        1.3140   38.6630  -34.4920 N.ar  470  HIS470     -0.2212
     46  N         -1.8470   35.0660  -31.9010 N.am  471  SER471     -0.1936
     47  CA        -1.3170   33.7840  -31.4290 C.3   471  SER471      0.2055
     48  C         -1.5430   33.6080  -29.9390 C.2   471  SER471      0.2643
     49  O         -0.6080   33.3280  -29.1970 O.2   471  SER471     -0.2714
     50  CB         0.1800   33.6670  -31.7120 C.3   471  SER471      0.2130
     51  OG         0.4200   33.5590  -33.0990 O.3   471  SER471     -0.2179
     52  N         -2.7870   33.7710  -29.5060 N.am  472  TYR472     -0.1973
     53  CA        -3.1170   33.6260  -28.0980 C.3   472  TYR472      0.1639
     54  C         -2.9280   32.1710  -27.6550 C.2   472  TYR472      0.2290
     55  O         -3.2970   31.2420  -28.3780 O.2   472  TYR472     -0.2864
     56  CB        -4.5590   34.0960  -27.8520 C.3   472  TYR472      0.0560
     57  CG        -4.7620   35.6020  -27.9730 C.ar  472  TYR472     -0.0198
     58  CD1       -4.7710   36.2330  -29.2090 C.ar  472  TYR472     -0.0009
     59  CD2       -4.9700   36.3890  -26.8370 C.ar  472  TYR472     -0.0009
     60  CE1       -4.9870   37.6060  -29.3070 C.ar  472  TYR472      0.0417
     61  CE2       -5.1830   37.7600  -26.9300 C.ar  472  TYR472      0.0417
     62  CZ        -5.1940   38.3600  -28.1620 C.ar  472  TYR472      0.1957
     63  OH        -5.4250   39.7120  -28.2400 O.3   472  TYR472     -0.2866
     64  N         -7.4610   30.7260  -25.3240 N.3   477  ILE477     -0.1245
     65  CA        -8.5150   30.5420  -26.3150 C.3   477  ILE477      0.1561
     66  C         -9.5450   29.4900  -25.9160 C.2   477  ILE477      0.2260
     67  O        -10.7310   29.6360  -26.2020 O.2   477  ILE477     -0.2867
     68  CB        -7.9270   30.2260  -27.7150 C.3   477  ILE477      0.0252
     69  CG1       -7.0460   31.3950  -28.1620 C.3   477  ILE477      0.0019
     70  CG2       -9.0540   30.0270  -28.7390 C.3   477  ILE477      0.0019
     71  CD1       -6.4880   31.2470  -29.5480 C.3   477  ILE477      0.0001
     72  N        -16.8150   32.7650  -31.5500 N.3   492  LEU492     -0.1231
     73  CA       -15.8840   33.7970  -31.9730 C.3   492  LEU492      0.1693
     74  C        -15.8710   34.1460  -33.4420 C.2   492  LEU492      0.2591
     75  O        -15.6780   35.3090  -33.7840 O.2   492  LEU492     -0.2718
     76  CB       -14.4710   33.4330  -31.5310 C.3   492  LEU492      0.0284
     77  CG       -14.2260   33.4910  -30.0230 C.3   492  LEU492      0.0019
     78  CD1      -12.9060   32.8170  -29.6830 C.3   492  LEU492      0.0001
     79  CD2      -14.2390   34.9490  -29.5660 C.3   492  LEU492      0.0001
     80  N        -16.0640   33.1640  -34.3170 N.am  493  ARG493     -0.1980
     81  CA       -16.0480   33.4600  -35.7510 C.3   493  ARG493      0.1597
     82  C        -17.1650   34.4350  -36.1050 C.2   493  ARG493      0.2287
     83  O        -16.9630   35.3850  -36.8640 O.2   493  ARG493     -0.2864
     84  CB       -16.1760   32.1740  -36.5720 C.3   493  ARG493      0.0334
     85  CG       -17.3740   31.3440  -36.2110 C.3   493  ARG493      0.0492
     86  CD       -17.2180   29.9190  -36.7080 C.3   493  ARG493      0.2205
     87  NE       -18.1740   29.0330  -36.0490 N.pl3 493  ARG493     -0.0865
     88  CZ       -19.4800   29.0130  -36.3010 C.cat 493  ARG493      0.5346
     89  NH1      -20.0020   29.8270  -37.2150 N.pl3 493  ARG493      0.1354
     90  NH2      -20.2720   28.1940  -35.6140 N.pl3 493  ARG493      0.1354
     91  N        -16.0540   37.7740  -35.6100 N.3   496  ARG496     -0.1245
     92  CA       -15.1010   38.2490  -36.6150 C.3   496  ARG496      0.1563
     93  C        -15.9100   38.7840  -37.7960 C.2   496  ARG496      0.2260
     94  O        -15.5050   39.7420  -38.4730 O.2   496  ARG496     -0.2867
     95  CB       -14.1590   37.1150  -37.0800 C.3   496  ARG496      0.0307
     96  CG       -13.1870   37.5300  -38.2040 C.3   496  ARG496      0.0489
     97  CD       -12.1320   36.4680  -38.5530 C.3   496  ARG496      0.2205
     98  NE       -12.3250   35.1920  -37.8640 N.pl3 496  ARG496     -0.0865
     99  CZ       -13.1120   34.2070  -38.2890 C.cat 496  ARG496      0.5346
    100  NH1      -13.7990   34.3290  -39.4200 N.pl3 496  ARG496      0.1354
    101  NH2      -13.2060   33.0930  -37.5800 N.pl3 496  ARG496      0.1354
    102  N        -16.0030   43.0910  -38.9450 N.3   500  ARG500     -0.1245
    103  CA       -15.7640   43.7490  -40.2270 C.3   500  ARG500      0.1563
    104  C        -16.7890   44.8470  -40.4990 C.2   500  ARG500      0.2260
    105  O        -16.4240   45.9660  -40.8630 O.2   500  ARG500     -0.2867
    106  CB       -15.7710   42.7250  -41.3640 C.3   500  ARG500      0.0307
    107  CG       -14.6500   41.7010  -41.2800 C.3   500  ARG500      0.0489
    108  CD       -14.3620   41.0660  -42.6420 C.3   500  ARG500      0.2205
    109  NE       -13.2320   40.1350  -42.5960 N.pl3 500  ARG500     -0.0865
    110  CZ       -13.2550   38.9520  -41.9870 C.cat 500  ARG500      0.5346
    111  NH1      -14.3600   38.5440  -41.3710 N.pl3 500  ARG500      0.1354
    112  NH2      -12.1700   38.1810  -41.9840 N.pl3 500  ARG500      0.1354
    113  N         -7.8620   43.9040  -36.4750 N.3   523  TRP523     -0.1241
    114  CA        -7.5820   42.4750  -36.3520 C.3   523  TRP523      0.1605
    115  C         -8.5940   41.6350  -37.1350 C.2   523  TRP523      0.2264
    116  O         -8.3710   40.4420  -37.3750 O.2   523  TRP523     -0.2867
    117  CB        -7.6400   42.0560  -34.8850 C.3   523  TRP523      0.0550
    118  CG        -8.9130   42.4990  -34.2000 C.ar  523  TRP523      0.0003
    119  CD1       -9.1320   43.6930  -33.5640 C.ar  523  TRP523      0.0946
    120  CD2      -10.1630   41.7860  -34.1450 C.ar  523  TRP523      0.0152
    121  NE1      -10.4320   43.7660  -33.1250 N.ar  523  TRP523     -0.2442
    122  CE2      -11.0880   42.6150  -33.4700 C.ar  523  TRP523      0.0810
    123  CE3      -10.5910   40.5350  -34.6110 C.ar  523  TRP523      0.0012
    124  CZ2      -12.4180   42.2280  -33.2400 C.ar  523  TRP523      0.0191
    125  CZ3      -11.9180   40.1480  -34.3810 C.ar  523  TRP523      0.0001
    126  CH2      -12.8140   40.9980  -33.7030 C.ar  523  TRP523      0.0015
    127  N         -3.9520   43.7400  -42.8290 N.3   528  LYS528     -0.1245
    128  CA        -3.7600   44.6090  -41.6770 C.3   528  LYS528      0.1561
    129  C         -3.3450   46.0130  -42.1240 C.2   528  LYS528      0.2260
    130  O         -2.8220   46.1830  -43.2270 O.2   528  LYS528     -0.2867
    131  CB        -2.6930   44.0050  -40.7710 C.3   528  LYS528      0.0271
    132  CG        -2.7930   42.4880  -40.6320 C.3   528  LYS528      0.0035
    133  CD        -4.0120   42.0460  -39.8420 C.3   528  LYS528      0.0206
    134  CE        -4.0520   40.5300  -39.7440 C.3   528  LYS528      0.1093
    135  NZ        -5.1160   40.0500  -38.8330 N.3   528  LYS528     -0.1314
@<TRIPOS>BOND
     1   130   129    2
     2   127   128    1
     3   108   109    1
     4   108   107    1
     5   109   110    2
     6   129   128    1
     7   110   112    1
     8   110   111    1
     9   128   131    1
    10   106   107    1
    11   106   103    1
    12   105   104    2
    13   131   132    1
    14   132   133    1
    15   104   103    1
    16   103   102    1
    17   133   134    1
    18   134   135    1
    19   100    99    1
    20    97    96    1
    21    97    98    1
    22    94    93    2
    23    99    98    2
    24    99   101    1
    25    96    95    1
    26    93    92    1
    27   116   115    2
    28    89    88    1
    29   115   114    1
    30    95    92    1
    31    83    82    2
    32    86    85    1
    33    86    87    1
    34    92    91    1
    35    84    85    1
    36    84    81    1
    37   113   114    1
    38   114   117    1
    39    88    87    2
    40    88    90    1
    41    82    81    1
    42    81    80    1
    43   117   118    1
    44    44    45   ar
    45    44    42   ar
    46   123   125   ar
    47   123   120   ar
    48    45    43   ar
    49   125   126   ar
    50    42    41   ar
    51    80    74   am
    52   118   120   ar
    53   118   119   ar
    54   120   122   ar
    55    43    41   ar
    56    41    40    1
    57    75    74    2
    58   126   124   ar
    59   119   121   ar
    60   122   124   ar
    61   122   121   ar
    62    74    73    1
    63    40    37    1
    64    27    26    1
    65    51    50    1
    66    73    72    1
    67    73    76    1
    68    19    17    1
    69    46    47    1
    70    46    38   am
    71    37    38    1
    72    37    36    1
    73    26    25    1
    74    31    30    2
    75    50    47    1
    76    76    77    1
    77    47    48    1
    78    38    39    2
    79    36    30   am
    80    30    29    1
    81    25    24    1
    82    28    29    1
    83    23    22    2
    84    17    18    1
    85    17    16    2
    86    24    21    1
    87    29    32    1
    88    21    22    1
    89    21    20    1
    90    16    15    1
    91    77    78    1
    92    77    79    1
    93    12    11    2
    94    48    52   am
    95    48    49    2
    96    71    69    1
    97     7     6    1
    98    52    53    1
    99    20    11   am
   100    11    10    1
   101    60    58   ar
   102    60    62   ar
   103    58    57   ar
   104    32    33    1
   105    13    10    1
   106    13    14    1
   107    15    14    1
   108    70    68    1
   109    10     9    1
   110    55    54    2
   111    63    62    1
   112    62    61   ar
   113    69    68    1
   114    35    33    1
   115    53    56    1
   116    53    54    1
   117    33    34    1
   118     6     8    1
   119     6     5    1
   120    57    56    1
   121    57    59   ar
   122     4     3    2
   123    68    65    1
   124     5     2    1
   125     2     3    1
   126     2     1    1
   127    61    59   ar
   128    65    66    1
   129    65    64    1
   130    67    66    2
