@<TRIPOS>MOLECULE
tmp/1nhwB01.pdb
 135 128 0 0 0
SMALL
GASTEIGER

@<TRIPOS>ATOM
      1  N         15.1240  105.3260   35.6550 N.3   119  SER119     -0.1202
      2  CA        14.4760  104.1740   35.0470 C.3   119  SER119      0.2020
      3  C         13.3290  104.5520   34.1070 C.2   119  SER119      0.2619
      4  O         12.2830  103.9150   34.1110 O.2   119  SER119     -0.2717
      5  CB        13.9550  103.2640   36.1680 C.3   119  SER119      0.2103
      6  OG        13.3400  102.0980   35.6540 O.3   119  SER119     -0.2182
      7  N         13.5340  105.5690   33.2790 N.am  120  LEU120     -0.1965
      8  CA        12.4770  106.0080   32.3840 C.3   120  LEU120      0.1728
      9  C         12.9160  106.2740   30.9480 C.2   120  LEU120      0.2616
     10  O         14.0890  106.5160   30.6640 O.2   120  LEU120     -0.2715
     11  CB        11.8240  107.2640   32.9600 C.3   120  LEU120      0.0311
     12  CG        12.7240  108.4950   32.9920 C.3   120  LEU120      0.0022
     13  CD1       12.4200  109.3340   31.7660 C.3   120  LEU120      0.0001
     14  CD2       12.4900  109.3000   34.2640 C.3   120  LEU120      0.0001
     15  N         11.9400  106.2220   30.0470 N.am  121  ALA121     -0.1963
     16  CA        12.1660  106.4610   28.6310 C.3   121  ALA121      0.1728
     17  C         10.8060  106.6970   28.0020 C.2   121  ALA121      0.2616
     18  O          9.8060  106.1550   28.4710 O.2   121  ALA121     -0.2715
     19  CB        12.8320  105.2520   27.9900 C.3   121  ALA121      0.0334
     20  N         10.7650  107.5230   26.9630 N.am  122  ASN122     -0.1958
     21  CA         9.5150  107.7940   26.2640 C.3   122  ASN122      0.1819
     22  C          9.7840  108.3260   24.8670 C.2   122  ASN122      0.2621
     23  O         10.7620  109.0330   24.6380 O.2   122  ASN122     -0.2715
     24  CB         8.6470  108.7930   27.0330 C.3   122  ASN122      0.1195
     25  CG         7.1750  108.3960   27.0330 C.2   122  ASN122      0.2630
     26  OD1        6.7210  107.6530   26.1600 O.2   122  ASN122     -0.2716
     27  ND2        6.4240  108.8930   28.0070 N.am  122  ASN122     -0.0877
     28  N          8.9010  107.9800   23.9390 N.am  123  ALA123     -0.1977
     29  CA         9.0160  108.3960   22.5510 C.3   123  ALA123      0.1597
     30  C          7.6420  108.2820   21.8930 C.2   123  ALA123      0.2287
     31  O          7.0260  107.2150   21.8880 O.2   123  ALA123     -0.2864
     32  CB        10.0250  107.5130   21.8280 C.3   123  ALA123      0.0319
     33  N          7.7140  105.8930   18.5340 N.3   126  VAL126     -0.1245
     34  CA         8.4650  104.6480   18.6760 C.3   126  VAL126      0.1561
     35  C          7.9930  103.6080   17.6640 C.2   126  VAL126      0.2260
     36  O          8.7190  102.6670   17.3490 O.2   126  VAL126     -0.2867
     37  CB         8.3390  104.0610   20.1150 C.3   126  VAL126      0.0252
     38  CG1        6.9410  103.5170   20.3470 C.3   126  VAL126      0.0019
     39  CG2        9.3770  102.9650   20.3320 C.3   126  VAL126      0.0019
     40  N         20.0000  101.3720   29.7260 N.3   170  THR170     -0.1203
     41  CA        20.1420  101.5640   28.2900 C.3   170  THR170      0.1994
     42  C         19.8740  100.2370   27.5660 C.2   170  THR170      0.2617
     43  O         19.6010   99.2200   28.2050 O.2   170  THR170     -0.2717
     44  CB        21.5410  102.0960   27.9280 C.3   170  THR170      0.1784
     45  OG1       21.5630  102.4530   26.5420 O.3   170  THR170     -0.2211
     46  CG2       22.6030  101.0450   28.2000 C.3   170  THR170      0.0376
     47  N         19.9400  100.2550   26.2390 N.am  171  TYR171     -0.1975
     48  CA        19.6970   99.0580   25.4390 C.3   171  TYR171      0.1639
     49  C         20.7440   98.9970   24.3290 C.2   171  TYR171      0.2290
     50  O         21.2390  100.0330   23.8790 O.2   171  TYR171     -0.2864
     51  CB        18.2840   99.0970   24.8490 C.3   171  TYR171      0.0560
     52  CG        17.9040   97.8560   24.0760 C.ar  171  TYR171     -0.0198
     53  CD1       18.0000   96.5900   24.6590 C.ar  171  TYR171     -0.0009
     54  CD2       17.4550   97.9440   22.7570 C.ar  171  TYR171     -0.0009
     55  CE1       17.6650   95.4400   23.9510 C.ar  171  TYR171      0.0417
     56  CE2       17.1130   96.7980   22.0300 C.ar  171  TYR171      0.0417
     57  CZ        17.2220   95.5460   22.6340 C.ar  171  TYR171      0.1957
     58  OH        16.8970   94.4030   21.9200 O.3   171  TYR171     -0.2866
     59  N         13.0600   99.3010   16.8810 N.3   181  TYR181     -0.1241
     60  CA        13.3940  100.1880   17.9870 C.3   181  TYR181      0.1605
     61  C         13.5110  101.5980   17.4110 C.2   181  TYR181      0.2264
     62  O         14.6110  102.1600   17.3380 O.2   181  TYR181     -0.2867
     63  CB        14.7320   99.7620   18.5810 C.3   181  TYR181      0.0534
     64  CG        14.9570  100.2720   19.9750 C.ar  181  TYR181     -0.0201
     65  CD1       14.1910   99.8000   21.0300 C.ar  181  TYR181     -0.0009
     66  CD2       15.9270  101.2350   20.2410 C.ar  181  TYR181     -0.0009
     67  CE1       14.3820  100.2720   22.3080 C.ar  181  TYR181      0.0417
     68  CE2       16.1280  101.7150   21.5310 C.ar  181  TYR181      0.0417
     69  CZ        15.3510  101.2270   22.5580 C.ar  181  TYR181      0.1957
     70  OH        15.5410  101.6830   23.8370 O.3   181  TYR181     -0.2866
     71  N         14.6260  106.2690   19.5770 N.3   185  MET185     -0.1245
     72  CA        14.9510  105.6490   20.8610 C.3   185  MET185      0.1570
     73  C         16.3880  105.1450   20.8370 C.2   185  MET185      0.2261
     74  O         17.1070  105.2660   21.8290 O.2   185  MET185     -0.2867
     75  CB        14.0020  104.4830   21.1870 C.3   185  MET185      0.0387
     76  CG        12.7810  104.8540   22.0390 C.3   185  MET185      0.0595
     77  SD        13.1410  105.7970   23.5690 S.3   185  MET185     -0.1393
     78  CE        13.8530  104.5300   24.5990 C.3   185  MET185      0.0692
     79  N         19.3530  106.3760   23.3840 N.3   189  LYS189     -0.1245
     80  CA        20.2490  105.5090   24.1430 C.3   189  LYS189      0.1561
     81  C         21.7250  105.7650   23.8330 C.2   189  LYS189      0.2260
     82  O         22.5740  105.7110   24.7300 O.2   189  LYS189     -0.2867
     83  CB        19.9110  104.0400   23.8750 C.3   189  LYS189      0.0271
     84  CG        18.5290  103.6540   24.3710 C.3   189  LYS189      0.0035
     85  CD        18.3420  104.0530   25.8360 C.3   189  LYS189      0.0206
     86  CE        16.9690  103.6370   26.3560 C.3   189  LYS189      0.1093
     87  NZ        16.7740  103.9670   27.7950 N.3   189  LYS189     -0.1314
     88  N         18.7540   93.2270   29.0340 N.3   217  GLY217     -0.1210
     89  CA        18.2230   92.3780   27.9850 C.3   217  GLY217      0.1940
     90  C         16.7360   92.6700   27.8490 C.2   217  GLY217      0.2454
     91  O         16.2500   93.6350   28.4380 O.2   217  GLY217     -0.2732
     92  N         15.9820   91.8510   27.0990 N.am  218  PRO218     -0.2717
     93  CA        14.5430   92.0420   26.8930 C.3   218  PRO218      0.1535
     94  C         13.6770   91.6480   28.0850 C.2   218  PRO218      0.2598
     95  O         13.8370   90.5730   28.6650 O.2   218  PRO218     -0.2715
     96  CB        14.2350   91.1650   25.6780 C.3   218  PRO218      0.0310
     97  CG        15.5740   90.8010   25.1110 C.3   218  PRO218      0.0237
     98  CD        16.4660   90.7180   26.3010 C.3   218  PRO218      0.0939
     99  N         12.7500   92.5270   28.4340 N.am  219  LEU219     -0.1978
    100  CA        11.8290   92.2900   29.5310 C.3   219  LEU219      0.1596
    101  C         10.4580   92.7700   29.0500 C.2   219  LEU219      0.2287
    102  O         10.3220   93.9030   28.5810 O.2   219  LEU219     -0.2864
    103  CB        12.2720   93.0760   30.7680 C.3   219  LEU219      0.0297
    104  CG        11.4570   92.8450   32.0420 C.3   219  LEU219      0.0022
    105  CD1       11.6810   91.4310   32.5340 C.3   219  LEU219      0.0001
    106  CD2       11.8650   93.8410   33.1030 C.3   219  LEU219      0.0001
    107  N          7.8920   94.5200   29.5510 N.3   221  SER221     -0.1217
    108  CA         7.3560   95.5860   30.3820 C.3   221  SER221      0.1889
    109  C          6.2520   96.3060   29.6320 C.2   221  SER221      0.2288
    110  O          6.0780   96.1200   28.4260 O.2   221  SER221     -0.2866
    111  CB         8.4560   96.5830   30.7430 C.3   221  SER221      0.2089
    112  OG         8.9570   97.2160   29.5800 O.3   221  SER221     -0.2183
    113  N          5.9740   99.4210   28.6940 N.3   223  ALA223     -0.1231
    114  CA         6.5070  100.2240   27.6030 C.3   223  ALA223      0.1694
    115  C          7.1720   99.4010   26.5040 C.2   223  ALA223      0.2591
    116  O          7.3650   99.8870   25.3900 O.2   223  ALA223     -0.2718
    117  CB         7.4780  101.2340   28.1510 C.3   223  ALA223      0.0304
    118  N          7.5280   98.1600   26.8210 N.am  224  ALA224     -0.1980
    119  CA         8.1610   97.2710   25.8520 C.3   224  ALA224      0.1597
    120  C          7.1150   96.8020   24.8440 C.2   224  ALA224      0.2287
    121  O          7.4170   96.5480   23.6760 O.2   224  ALA224     -0.2864
    122  CB         8.7720   96.0740   26.5680 C.3   224  ALA224      0.0319
    123  N          4.6840   98.6290   23.9460 N.3   226  ALA226     -0.1231
    124  CA         4.3100   99.7910   23.1530 C.3   226  ALA226      0.1694
    125  C          4.9870   99.7160   21.7900 C.2   226  ALA226      0.2591
    126  O          4.4110  100.1170   20.7820 O.2   226  ALA226     -0.2718
    127  CB         4.7170  101.0690   23.8720 C.3   226  ALA226      0.0304
    128  N          6.2100   99.1910   21.7720 N.am  227  ILE227     -0.1980
    129  CA         6.9900   99.0540   20.5430 C.3   227  ILE227      0.1595
    130  C          6.3180   98.1070   19.5500 C.2   227  ILE227      0.2287
    131  O          6.7150   96.9490   19.4120 O.2   227  ILE227     -0.2864
    132  CB         8.4190   98.5320   20.8430 C.3   227  ILE227      0.0276
    133  CG1        9.1300   99.4830   21.8070 C.3   227  ILE227      0.0022
    134  CG2        9.2170   98.4170   19.5560 C.3   227  ILE227      0.0022
    135  CD1       10.5170   99.0290   22.2050 C.3   227  ILE227      0.0001
@<TRIPOS>BOND
     1    59    60    1
     2    62    61    2
     3    36    35    2
     4    61    60    1
     5    35    34    1
     6    60    63    1
     7    33    34    1
     8    63    64    1
     9    34    37    1
    10   131   130    2
    11   130   129    1
    12   134   132    1
    13    71    72    1
    14    64    66   ar
    15    64    65   ar
    16    37    39    1
    17    37    38    1
    18    66    68   ar
    19   129   132    1
    20   129   128    1
    21   126   125    2
    22    73    72    1
    23    73    74    2
    24   132   133    1
    25    72    75    1
    26    65    67   ar
    27    75    76    1
    28    68    69   ar
    29   128   125   am
    30   125   124    1
    31   133   135    1
    32    32    29    1
    33    31    30    2
    34    30    29    1
    35    58    57    1
    36    56    57   ar
    37    56    54   ar
    38    76    77    1
    39    67    69   ar
    40    29    28    1
    41    69    70    1
    42    57    55   ar
    43    54    52   ar
    44   124   127    1
    45   124   123    1
    46    79    80    1
    47    77    78    1
    48   121   120    2
    49    81    80    1
    50    81    82    2
    51    83    80    1
    52    83    84    1
    53    50    49    2
    54    28    22   am
    55    55    53   ar
    56    52    53   ar
    57    52    51    1
    58    49    48    1
    59    84    85    1
    60    23    22    2
    61   120   119    1
    62    51    48    1
    63    22    21    1
    64    97    96    1
    65    97    98    1
    66   116   115    2
    67    48    47    1
    68    96    93    1
    69    85    86    1
    70   119   122    1
    71   119   118    1
    72    26    25    2
    73    47    42   am
    74    21    20    1
    75    21    24    1
    76    98    92    1
    77    86    87    1
    78   115   118   am
    79   115   114    1
    80    45    44    1
    81    93    92    1
    82    93    94    1
    83    20    17   am
    84    24    25    1
    85    25    27   am
    86    92    90   am
    87    42    43    2
    88    42    41    1
    89   114   117    1
    90   114   113    1
    91    90    89    1
    92    90    91    2
    93    44    46    1
    94    44    41    1
    95    89    88    1
    96    19    16    1
    97    17    18    2
    98    17    16    1
    99    94    99   am
   100    94    95    2
   101    41    40    1
   102   110   109    2
   103    99   100    1
   104   102   101    2
   105    16    15    1
   106   101   100    1
   107   100   103    1
   108   107   108    1
   109   112   111    1
   110   109   108    1
   111    15     9   am
   112   108   111    1
   113    10     9    2
   114   103   104    1
   115     9     8    1
   116    13    12    1
   117   104   105    1
   118   104   106    1
   119     8    11    1
   120     8     7    1
   121    11    12    1
   122    12    14    1
   123     7     3   am
   124     3     4    2
   125     3     2    1
   126     2     1    1
   127     2     5    1
   128     6     5    1
