@<TRIPOS>MOLECULE
tmp/1nhxA01.pdb
 162 160 0 0 0
SMALL
GASTEIGER

@<TRIPOS>ATOM
      1  N         44.3120   35.3470   32.9620 N.3   278  ALA278     -0.1231
      2  CA        44.1790   36.7820   33.2910 C.3   278  ALA278      0.1694
      3  C         43.2200   37.5710   32.3820 C.2   278  ALA278      0.2592
      4  O         43.3700   38.7950   32.1810 O.2   278  ALA278     -0.2718
      5  CB        45.5540   37.4510   33.3470 C.3   278  ALA278      0.0304
      6  N         42.2200   36.8770   31.8490 N.am  279  CYS279     -0.1956
      7  CA        41.2130   37.5170   31.0110 C.3   279  CYS279      0.1843
      8  C         39.8160   37.5550   31.6490 C.2   279  CYS279      0.2626
      9  O         38.8900   38.1040   31.0700 O.2   279  CYS279     -0.2714
     10  CB        41.1670   36.8610   29.6200 C.3   279  CYS279      0.0997
     11  SG        42.6280   37.2250   28.5900 S.3   279  CYS279     -0.0797
     12  N         39.6580   36.9770   32.8360 N.am  280  GLY280     -0.1954
     13  CA        38.3560   36.9450   33.4870 C.3   280  GLY280      0.1869
     14  C         37.3830   35.9270   32.9090 C.2   280  GLY280      0.2309
     15  O         36.1710   36.1380   32.9060 O.2   280  GLY280     -0.2863
     16  N         34.5170   34.8640   35.0040 N.3   283  ASN283     -0.1225
     17  CA        33.6450   36.0180   35.1800 C.3   283  ASN283      0.1785
     18  C         32.6420   36.1320   34.0460 C.2   283  ASN283      0.2597
     19  O         31.4500   36.3570   34.2840 O.2   283  ASN283     -0.2718
     20  CB        34.4810   37.2920   35.3470 C.3   283  ASN283      0.1169
     21  CG        35.2650   37.2880   36.6470 C.2   283  ASN283      0.2627
     22  OD1       34.9570   36.5070   37.5500 O.2   283  ASN283     -0.2716
     23  ND2       36.2790   38.1420   36.7510 N.am  283  ASN283     -0.0877
     24  N         33.1200   35.9340   32.8180 N.am  284  LEU284     -0.1980
     25  CA        32.2460   35.9620   31.6500 C.3   284  LEU284      0.1596
     26  C         31.2760   34.7820   31.6240 C.2   284  LEU284      0.2287
     27  O         30.1170   34.9530   31.2540 O.2   284  LEU284     -0.2864
     28  CB        33.0450   36.0080   30.3540 C.3   284  LEU284      0.0297
     29  CG        32.2300   35.9670   29.0500 C.3   284  LEU284      0.0022
     30  CD1       31.2530   37.1360   28.9150 C.3   284  LEU284      0.0001
     31  CD2       33.1820   35.9270   27.8640 C.3   284  LEU284      0.0001
     32  N         28.5080   35.7710   33.8120 N.3   287  MET287     -0.1230
     33  CA        28.2740   37.2080   33.7500 C.3   287  MET287      0.1702
     34  C         26.8310   37.5600   34.1410 C.2   287  MET287      0.2592
     35  O         25.8770   36.9070   33.7030 O.2   287  MET287     -0.2718
     36  CB        28.5870   37.7380   32.3460 C.3   287  MET287      0.0401
     37  CG        28.1470   39.1900   32.1150 C.3   287  MET287      0.0596
     38  SD        28.6400   39.8390   30.5000 S.3   287  MET287     -0.1393
     39  CE        27.5840   38.9460   29.4330 C.3   287  MET287      0.0692
     40  N         26.6950   38.5610   35.0070 N.am  288  ASN288     -0.1974
     41  CA        25.4210   39.2390   35.2160 C.3   288  ASN288      0.1688
     42  C         25.3580   40.3870   34.1920 C.2   288  ASN288      0.2292
     43  O         26.1010   41.3600   34.3150 O.2   288  ASN288     -0.2864
     44  CB        25.3430   39.7620   36.6620 C.3   288  ASN288      0.1181
     45  CG        24.0230   40.4480   36.9780 C.2   288  ASN288      0.2629
     46  OD1       24.0020   41.5220   37.5810 O.2   288  ASN288     -0.2716
     47  ND2       22.9250   39.8330   36.5890 N.am  288  ASN288     -0.0877
     48  N         40.5090   38.8830   42.9380 N.3   329  GLY329     -0.1225
     49  CA        39.6910   39.5920   41.9630 C.3   329  GLY329      0.1811
     50  C         38.2180   39.2070   41.9220 C.2   329  GLY329      0.2280
     51  O         37.4490   39.7930   41.1520 O.2   329  GLY329     -0.2866
     52  N         30.9690   42.8380   42.8180 N.3   333  LYS333     -0.1231
     53  CA        31.0090   43.6250   41.5810 C.3   333  LYS333      0.1693
     54  C         31.4960   42.8570   40.3460 C.2   333  LYS333      0.2592
     55  O         30.8480   42.9160   39.3050 O.2   333  LYS333     -0.2718
     56  CB        31.7950   44.9370   41.7560 C.3   333  LYS333      0.0285
     57  CG        30.9170   46.0840   42.2920 C.3   333  LYS333      0.0035
     58  CD        31.7110   47.3510   42.6020 C.3   333  LYS333      0.0206
     59  CE        30.8630   48.3050   43.4650 C.3   333  LYS333      0.1093
     60  NZ        31.1450   49.7500   43.1950 N.3   333  LYS333     -0.1314
     61  N         32.6150   42.1400   40.4670 N.am  334  THR334     -0.1953
     62  CA        33.2180   41.4400   39.3270 C.3   334  THR334      0.1897
     63  C         32.5430   40.1070   38.9830 C.2   334  THR334      0.2313
     64  O         32.5910   39.6590   37.8330 O.2   334  THR334     -0.2863
     65  CB        34.7290   41.1800   39.5480 C.3   334  THR334      0.1794
     66  OG1       34.8990   40.3240   40.6820 O.3   334  THR334     -0.2208
     67  CG2       35.4850   42.4610   39.9040 C.3   334  THR334      0.0378
     68  N         44.2970   39.5110   26.1110 N.3   427  ARG427     -0.1245
     69  CA        44.5130   40.7670   26.8050 C.3   427  ARG427      0.1563
     70  C         45.5270   41.5260   25.9640 C.2   427  ARG427      0.2260
     71  O         46.6900   41.1430   25.9070 O.2   427  ARG427     -0.2867
     72  CB        45.0270   40.5030   28.2220 C.3   427  ARG427      0.0307
     73  CG        45.0930   41.7240   29.1200 C.3   427  ARG427      0.0489
     74  CD        45.8460   41.4950   30.4100 C.3   427  ARG427      0.2205
     75  NE        44.9910   41.0550   31.5160 N.pl3 427  ARG427     -0.0865
     76  CZ        44.5490   41.8400   32.5030 C.cat 427  ARG427      0.5346
     77  NH1       44.8510   43.1290   32.5360 N.pl3 427  ARG427      0.1354
     78  NH2       43.7900   41.3290   33.4640 N.pl3 427  ARG427      0.1354
     79  N         38.9200   42.7810   25.9110 N.3   499  TRP499     -0.1227
     80  CA        38.3260   43.6640   26.9230 C.3   499  TRP499      0.1737
     81  C         39.3360   44.7000   27.4420 C.2   499  TRP499      0.2595
     82  O         38.9710   45.5790   28.2290 O.2   499  TRP499     -0.2718
     83  CB        37.8340   42.8830   28.1530 C.3   499  TRP499      0.0564
     84  CG        37.0550   41.5930   27.9430 C.ar  499  TRP499      0.0003
     85  CD1       37.2500   40.4140   28.6070 C.ar  499  TRP499      0.0946
     86  CD2       35.9350   41.3810   27.0720 C.ar  499  TRP499      0.0152
     87  NE1       36.3430   39.4690   28.1810 N.ar  499  TRP499     -0.2442
     88  CE2       35.5210   40.0350   27.2410 C.ar  499  TRP499      0.0810
     89  CE3       35.2540   42.1790   26.1410 C.ar  499  TRP499      0.0012
     90  CZ2       34.4520   39.4760   26.5300 C.ar  499  TRP499      0.0191
     91  CZ3       34.1860   41.6220   25.4300 C.ar  499  TRP499      0.0001
     92  CH2       33.7960   40.2790   25.6350 C.ar  499  TRP499      0.0015
     93  N         40.5890   44.5970   27.0090 N.am  500  PHE500     -0.1976
     94  CA        41.6910   45.2350   27.7350 C.3   500  PHE500      0.1639
     95  C         42.4820   46.2980   26.9830 C.2   500  PHE500      0.2290
     96  O         43.5600   46.7090   27.4370 O.2   500  PHE500     -0.2864
     97  CB        42.6260   44.1570   28.3200 C.3   500  PHE500      0.0560
     98  CG        41.9160   43.1790   29.2170 C.ar  500  PHE500     -0.0200
     99  CD1       41.4260   41.9750   28.7110 C.ar  500  PHE500     -0.0042
    100  CD2       41.6960   43.4800   30.5560 C.ar  500  PHE500     -0.0042
    101  CE1       40.7490   41.0660   29.5410 C.ar  500  PHE500     -0.0003
    102  CE2       41.0270   42.5820   31.3870 C.ar  500  PHE500     -0.0003
    103  CZ        40.5490   41.3760   30.8800 C.ar  500  PHE500     -0.0000
    104  N         41.8460   51.9000   30.5250 N.3   508  PHE508     -0.1241
    105  CA        41.0220   51.0250   29.7050 C.3   508  PHE508      0.1605
    106  C         39.9760   51.8280   28.9500 C.2   508  PHE508      0.2264
    107  O         39.3180   52.6990   29.5150 O.2   508  PHE508     -0.2867
    108  CB        40.3670   49.9510   30.5720 C.3   508  PHE508      0.0534
    109  CG        41.3490   48.9960   31.2150 C.ar  508  PHE508     -0.0203
    110  CD1       41.6080   49.0570   32.5890 C.ar  508  PHE508     -0.0042
    111  CD2       41.9930   48.0250   30.4530 C.ar  508  PHE508     -0.0042
    112  CE1       42.5090   48.1800   33.1950 C.ar  508  PHE508     -0.0003
    113  CE2       42.8890   47.1290   31.0440 C.ar  508  PHE508     -0.0003
    114  CZ        43.1510   47.2070   32.4270 C.ar  508  PHE508     -0.0000
    115  N         37.2970   50.5260   27.4920 N.3   510  TRP510     -0.1228
    116  CA        35.9940   49.8830   27.5580 C.3   510  TRP510      0.1722
    117  C         35.7290   49.4410   29.0020 C.2   510  TRP510      0.2437
    118  O         36.5650   48.7680   29.5980 O.2   510  TRP510     -0.2733
    119  CB        35.9550   48.6990   26.5830 C.3   510  TRP510      0.0563
    120  CG        34.6740   47.9150   26.5660 C.ar  510  TRP510      0.0003
    121  CD1       34.4760   46.6640   27.0740 C.ar  510  TRP510      0.0946
    122  CD2       33.4200   48.3180   26.0020 C.ar  510  TRP510      0.0152
    123  NE1       33.1800   46.2640   26.8610 N.ar  510  TRP510     -0.2442
    124  CE2       32.5110   47.2570   26.1990 C.ar  510  TRP510      0.0810
    125  CE3       32.9690   49.4730   25.3380 C.ar  510  TRP510      0.0012
    126  CZ2       31.1820   47.3200   25.7810 C.ar  510  TRP510      0.0191
    127  CZ3       31.6560   49.5310   24.9150 C.ar  510  TRP510      0.0001
    128  CH2       30.7750   48.4620   25.1340 C.ar  510  TRP510      0.0015
    129  N         34.5820   49.8270   29.5660 N.am  511  PRO511     -0.2718
    130  CA        34.2560   49.4910   30.9640 C.3   511  PRO511      0.1535
    131  C         34.1260   47.9930   31.2350 C.2   511  PRO511      0.2599
    132  O         34.3770   47.5720   32.3620 O.2   511  PRO511     -0.2715
    133  CB        32.9310   50.2230   31.2110 C.3   511  PRO511      0.0310
    134  CG        32.3630   50.4780   29.8710 C.3   511  PRO511      0.0237
    135  CD        33.5220   50.6290   28.9350 C.3   511  PRO511      0.0939
    136  N         33.7410   47.2080   30.2300 N.am  512  GLY512     -0.1941
    137  CA        33.7550   45.7580   30.3500 C.3   512  GLY512      0.2014
    138  C         32.8300   45.2160   31.4250 C.2   512  GLY512      0.2639
    139  O         31.7910   45.8100   31.7210 O.2   512  GLY512     -0.2714
    140  N         33.2200   44.0880   32.0120 N.am  513  PHE513     -0.1959
    141  CA        32.4190   43.3890   33.0220 C.3   513  PHE513      0.1771
    142  C         31.0200   43.1010   32.4840 C.2   513  PHE513      0.2620
    143  O         30.9130   42.5520   31.3940 O.2   513  PHE513     -0.2715
    144  CB        32.4490   44.1280   34.3750 C.3   513  PHE513      0.0574
    145  CG        33.8380   44.1960   34.9800 C.ar  513  PHE513     -0.0200
    146  CD1       34.7060   45.2350   34.6550 C.ar  513  PHE513     -0.0042
    147  CD2       34.2870   43.2010   35.8350 C.ar  513  PHE513     -0.0042
    148  CE1       36.0040   45.2880   35.1900 C.ar  513  PHE513     -0.0003
    149  CE2       35.5820   43.2340   36.3650 C.ar  513  PHE513     -0.0003
    150  CZ        36.4400   44.2890   36.0470 C.ar  513  PHE513     -0.0000
    151  N         29.9700   43.4880   33.2130 N.am  514  GLY514     -0.1954
    152  CA        28.5940   43.3280   32.7560 C.3   514  GLY514      0.1869
    153  C         28.2250   44.0680   31.4750 C.2   514  GLY514      0.2309
    154  O         27.2560   43.6840   30.7940 O.2   514  GLY514     -0.2863
    155  N         29.9650   43.9160   28.9260 N.3   516  ASN516     -0.1240
    156  CA        30.2970   43.0070   27.8260 C.3   516  ASN516      0.1653
    157  C         29.0660   42.3060   27.2440 C.2   516  ASN516      0.2266
    158  O         29.1420   41.7060   26.1700 O.2   516  ASN516     -0.2867
    159  CB        31.3740   42.0090   28.2310 C.3   516  ASN516      0.1155
    160  CG        32.7370   42.6640   28.4020 C.2   516  ASN516      0.2627
    161  OD1       33.0140   43.7360   27.8440 O.2   516  ASN516     -0.2716
    162  ND2       33.5880   42.0280   29.1800 N.am  516  ASN516     -0.0877
@<TRIPOS>BOND
     1   127   128   ar
     2   127   125   ar
     3   128   126   ar
     4   125   122   ar
     5    91    92   ar
     6    91    89   ar
     7    92    90   ar
     8   126   124   ar
     9    71    70    2
    10    79    80    1
    11    70    69    1
    12   122   124   ar
    13   122   120   ar
    14    68    69    1
    15    89    86   ar
    16   158   157    2
    17   124   123   ar
    18    90    88   ar
    19   120   119    1
    20   120   121   ar
    21   119   116    1
    22    69    72    1
    23   123   121   ar
    24    80    81    1
    25    80    83    1
    26    95    96    2
    27    95    94    1
    28    93    81   am
    29    93    94    1
    30    86    88   ar
    31    86    84   ar
    32    88    87   ar
    33   157   156    1
    34    81    82    2
    35   115   116    1
    36   116   117    1
    37    94    97    1
    38   156   159    1
    39   156   155    1
    40   161   160    2
    41    31    29    1
    42    84    83    1
    43    84    85   ar
    44    87    85   ar
    45    72    73    1
    46   159   160    1
    47    97    98    1
    48   160   162   am
    49    11    10    1
    50    99    98   ar
    51    99   101   ar
    52    30    29    1
    53   135   129    1
    54   135   134    1
    55   106   107    2
    56   106   105    1
    57   117   129   am
    58   117   118    2
    59    29    28    1
    60    73    74    1
    61    98   100   ar
    62    39    38    1
    63   101   103   ar
    64   129   130    1
    65    10     7    1
    66   105   104    1
    67   105   108    1
    68   134   133    1
    69   136   137    1
    70   136   131   am
    71   137   138    1
    72    28    25    1
    73    74    75    1
    74   111   113   ar
    75   111   109   ar
    76    38    37    1
    77   100   102   ar
    78   108   109    1
    79   154   153    2
    80   103   102   ar
    81   130   133    1
    82   130   131    1
    83     7     8    1
    84     7     6    1
    85   113   114   ar
    86     9     8    2
    87   109   110   ar
    88   131   132    2
    89    27    26    2
    90   143   142    2
    91   138   139    2
    92   138   140   am
    93   153   152    1
    94    75    76    2
    95    26    25    1
    96     8    12   am
    97    25    24    1
    98     6     3   am
    99   140   141    1
   100    37    36    1
   101     4     3    2
   102    36    33    1
   103     3     2    1
   104   114   112   ar
   105   142   141    1
   106   142   151   am
   107    76    77    1
   108    76    78    1
   109   110   112   ar
   110   152   151    1
   111    24    18   am
   112    12    13    1
   113    15    14    2
   114    14    13    1
   115     1     2    1
   116   141   144    1
   117     2     5    1
   118    35    34    2
   119    33    32    1
   120    33    34    1
   121    18    19    2
   122    18    17    1
   123    34    40   am
   124    42    43    2
   125    42    41    1
   126   144   145    1
   127   146   145   ar
   128   146   148   ar
   129   145   147   ar
   130    16    17    1
   131    40    41    1
   132    17    20    1
   133   148   150   ar
   134    41    44    1
   135    20    21    1
   136   147   149   ar
   137   150   149   ar
   138    47    45   am
   139    21    23   am
   140    21    22    2
   141    44    45    1
   142    45    46    2
   143    64    63    2
   144    63    62    1
   145    55    54    2
   146    62    65    1
   147    62    61    1
   148    65    67    1
   149    65    66    1
   150    54    61   am
   151    54    53    1
   152    51    50    2
   153    53    56    1
   154    53    52    1
   155    56    57    1
   156    50    49    1
   157    49    48    1
   158    57    58    1
   159    58    59    1
   160    60    59    1
