@<TRIPOS>MOLECULE
tmp/1nhzA01.pdb
 125 120 0 0 0
SMALL
GASTEIGER

@<TRIPOS>ATOM
      1  N         -3.6890   30.1010   -6.5310 N.3    11  GLU11      -0.1231
      2  CA        -3.6830   29.3130   -5.2840 C.3    11  GLU11       0.1684
      3  C         -5.0180   28.5140   -5.1600 C.2    11  GLU11       0.2434
      4  O         -6.0910   29.0660   -5.3100 O.2    11  GLU11      -0.2733
      5  CB        -3.4280   30.2660   -4.0780 C.3    11  GLU11       0.0402
      6  CG        -3.2080   29.6280   -2.6910 C.3    11  GLU11       0.1161
      7  CD        -2.1910   28.4850   -2.6230 C.2    11  GLU11       0.3649
      8  OE1       -2.3540   27.6590   -1.6740 O.co2  11  GLU11      -0.2457
      9  OE2       -1.2480   28.4040   -3.4720 O.co2  11  GLU11      -0.2457
     10  N         -4.9470   27.1960   -4.9640 N.am   12  PRO12      -0.2718
     11  CA        -6.1520   26.3670   -4.9440 C.3    12  PRO12       0.1535
     12  C         -7.1530   26.7680   -3.8530 C.2    12  PRO12       0.2598
     13  O         -6.7570   27.1100   -2.7790 O.2    12  PRO12      -0.2715
     14  CB        -5.6020   24.9810   -4.6230 C.3    12  PRO12       0.0310
     15  CG        -4.1720   25.0160   -5.0500 C.3    12  PRO12       0.0237
     16  CD        -3.7330   26.3890   -4.7620 C.3    12  PRO12       0.0939
     17  N         -8.4390   26.7090   -4.1290 N.am   13  GLU13      -0.1964
     18  CA        -9.4320   26.7430   -3.0550 C.3    13  GLU13       0.1733
     19  C         -9.2570   25.5600   -2.1060 C.2    13  GLU13       0.2616
     20  O         -8.7130   24.4890   -2.4850 O.2    13  GLU13      -0.2715
     21  CB       -10.8460   26.7090   -3.6190 C.3    13  GLU13       0.0429
     22  CG       -11.1790   27.8990   -4.4890 C.3    13  GLU13       0.1163
     23  CD       -12.6130   27.8790   -4.9810 C.2    13  GLU13       0.3649
     24  OE1      -13.3680   26.9400   -4.6150 O.co2  13  GLU13      -0.2457
     25  OE2      -12.9790   28.7980   -5.7430 O.co2  13  GLU13      -0.2457
     26  N         -9.7010   25.7680   -0.8710 N.am   14  VAL14      -0.1963
     27  CA        -9.6840   24.7350    0.1580 C.3    14  VAL14       0.1727
     28  C        -10.8690   23.7780   -0.0470 C.2    14  VAL14       0.2616
     29  O        -12.0200   24.1920   -0.1370 O.2    14  VAL14      -0.2715
     30  CB        -9.6720   25.3680    1.5800 C.3    14  VAL14       0.0290
     31  CG1      -10.9790   26.0670    1.8440 C.3    14  VAL14       0.0023
     32  CG2       -9.4980   24.3080    2.6340 C.3    14  VAL14       0.0023
     33  N        -10.5810   22.4880   -0.1350 N.am   15  LEU15      -0.1977
     34  CA       -11.5810   21.4650   -0.3890 C.3    15  LEU15       0.1596
     35  C        -12.1160   20.9410    0.9210 C.2    15  LEU15       0.2287
     36  O        -11.3760   20.8920    1.9100 O.2    15  LEU15      -0.2864
     37  CB       -10.9390   20.3010   -1.1280 C.3    15  LEU15       0.0297
     38  CG       -10.1780   20.5890   -2.4290 C.3    15  LEU15       0.0022
     39  CD1       -9.4870   19.2890   -2.9560 C.3    15  LEU15       0.0001
     40  CD2      -11.1460   21.1670   -3.4830 C.3    15  LEU15       0.0001
     41  N         -6.5090   16.3590   -3.5980 N.3    41  GLN41      -0.1245
     42  CA        -5.5540   17.4460   -3.4030 C.3    41  GLN41       0.1566
     43  C         -4.3840   17.3450   -4.3740 C.2    41  GLN41       0.2260
     44  O         -3.9200   18.3600   -4.8690 O.2    41  GLN41      -0.2867
     45  CB        -5.0300   17.4670   -1.9640 C.3    41  GLN41       0.0367
     46  CG        -6.0430   17.9430   -0.9260 C.3    41  GLN41       0.0905
     47  CD        -5.4310   18.3390    0.4330 C.2    41  GLN41       0.2608
     48  OE1       -6.1470   18.8280    1.3190 O.2    41  GLN41      -0.2717
     49  NE2       -4.1500   18.1390    0.5990 N.am   41  GLN41      -0.0878
     50  N         -5.5130   18.7240   -7.5550 N.3    44  ALA44      -0.1231
     51  CA        -5.4560   20.1830   -7.4610 C.3    44  ALA44       0.1694
     52  C         -3.9970   20.7400   -7.4460 C.2    44  ALA44       0.2591
     53  O         -3.7760   21.8360   -7.9300 O.2    44  ALA44      -0.2718
     54  CB        -6.2430   20.6670   -6.2450 C.3    44  ALA44       0.0304
     55  N         -3.0340   20.0010   -6.8940 N.am   45  ALA45      -0.1980
     56  CA        -1.6180   20.3600   -6.9710 C.3    45  ALA45       0.1597
     57  C         -1.0720   20.3690   -8.4130 C.2    45  ALA45       0.2287
     58  O         -0.2920   21.2330   -8.7790 O.2    45  ALA45      -0.2864
     59  CB        -0.7810   19.4140   -6.1290 C.3    45  ALA45       0.0319
     60  N         -2.5420   23.3770  -10.2000 N.3    48  TRP48      -0.1241
     61  CA        -1.8270   24.5670   -9.7220 C.3    48  TRP48       0.1605
     62  C         -0.4440   24.6760  -10.4050 C.2    48  TRP48       0.2264
     63  O         -0.1210   25.6710  -11.0140 O.2    48  TRP48      -0.2867
     64  CB        -1.6690   24.4630   -8.2000 C.3    48  TRP48       0.0550
     65  CG        -0.6880   25.3760   -7.6080 C.ar   48  TRP48       0.0003
     66  CD1       -0.8690   26.6920   -7.3210 C.ar   48  TRP48       0.0946
     67  CD2        0.6220   25.0370   -7.1470 C.ar   48  TRP48       0.0152
     68  NE1        0.2660   27.2130   -6.7650 N.ar   48  TRP48      -0.2442
     69  CE2        1.1980   26.2100   -6.6350 C.ar   48  TRP48       0.0810
     70  CE3        1.3790   23.8540   -7.1320 C.ar   48  TRP48       0.0012
     71  CZ2        2.4910   26.2430   -6.1290 C.ar   48  TRP48       0.0191
     72  CZ3        2.6450   23.8930   -6.6590 C.ar   48  TRP48       0.0001
     73  CH2        3.1940   25.0670   -6.1430 C.ar   48  TRP48       0.0015
     74  N          4.2600   19.6570   -0.8850 N.3    74  LEU74      -0.1231
     75  CA         3.3380   20.7600   -1.1690 C.3    74  LEU74       0.1693
     76  C          2.0670   20.6510   -0.3730 C.2    74  LEU74       0.2591
     77  O          1.5820   21.6320    0.1550 O.2    74  LEU74      -0.2718
     78  CB         2.9420   20.8020   -2.6390 C.3    74  LEU74       0.0284
     79  CG         4.0650   21.0440   -3.6330 C.3    74  LEU74       0.0019
     80  CD1        3.5680   20.7210   -5.0170 C.3    74  LEU74       0.0001
     81  CD2        4.4720   22.4460   -3.5980 C.3    74  LEU74       0.0001
     82  N          1.5360   19.4440   -0.2810 N.am   75  MET75      -0.1979
     83  CA         0.3240   19.2140    0.5070 C.3    75  MET75       0.1605
     84  C          0.5270   19.3620    2.0140 C.2    75  MET75       0.2287
     85  O         -0.3480   19.8930    2.7020 O.2    75  MET75      -0.2864
     86  CB        -0.2710   17.8430    0.1660 C.3    75  MET75       0.0413
     87  CG        -0.9640   17.9130   -1.2010 C.3    75  MET75       0.0598
     88  SD        -1.3360   16.2730   -1.9650 S.3    75  MET75      -0.1393
     89  CE        -2.0560   15.5050   -0.5490 C.3    75  MET75       0.0692
     90  N          0.9000   23.2650    2.6610 N.3    78  ALA78      -0.1245
     91  CA        -0.3850   23.9590    2.6290 C.3    78  ALA78       0.1562
     92  C         -1.2400   23.5380    3.8140 C.2    78  ALA78       0.2260
     93  O         -1.9470   24.3780    4.4040 O.2    78  ALA78      -0.2867
     94  CB        -1.0770   23.6720    1.3330 C.3    78  ALA78       0.0290
     95  N         -2.7500   26.2050    6.4860 N.3    82  ARG82      -0.1245
     96  CA        -4.1130   26.1770    6.9300 C.3    82  ARG82       0.1563
     97  C         -4.1990   26.0600    8.4420 C.2    82  ARG82       0.2260
     98  O         -5.0160   26.7440    9.0490 O.2    82  ARG82      -0.2867
     99  CB        -4.9130   25.0240    6.2660 C.3    82  ARG82       0.0307
    100  CG        -5.2490   25.2880    4.8170 C.3    82  ARG82       0.0489
    101  CD        -6.2780   24.3620    4.1950 C.3    82  ARG82       0.2205
    102  NE        -6.0490   22.9660    4.5080 N.pl3  82  ARG82      -0.0865
    103  CZ        -5.3150   22.1060    3.8070 C.cat  82  ARG82       0.5346
    104  NH1       -4.6530   22.4470    2.7260 N.pl3  82  ARG82       0.1354
    105  NH2       -5.1980   20.8640    4.2360 N.pl3  82  ARG82       0.1354
    106  N         -6.9410   19.5510    8.1800 N.3    94  PHE94      -0.1241
    107  CA        -6.9860   18.9280    6.8580 C.3    94  PHE94       0.1605
    108  C         -8.0070   19.5760    5.9170 C.2    94  PHE94       0.2264
    109  O         -7.7660   19.7390    4.7390 O.2    94  PHE94      -0.2867
    110  CB        -7.3150   17.4670    7.0040 C.3    94  PHE94       0.0534
    111  CG        -6.2060   16.6700    7.5500 C.ar   94  PHE94      -0.0203
    112  CD1       -5.0230   16.6330    6.9190 C.ar   94  PHE94      -0.0042
    113  CD2       -6.3580   15.9260    8.7060 C.ar   94  PHE94      -0.0042
    114  CE1       -3.9990   15.8970    7.4190 C.ar   94  PHE94      -0.0003
    115  CE2       -5.3430   15.1950    9.1890 C.ar   94  PHE94      -0.0003
    116  CZ        -4.1620   15.1760    8.5440 C.ar   94  PHE94      -0.0000
    117  N          6.1990   27.9410   -1.2430 N.3   138  LYS138     -0.1245
    118  CA         5.4930   26.7680   -1.7360 C.3   138  LYS138      0.1561
    119  C          5.8840   26.4080   -3.1750 C.2   138  LYS138      0.2260
    120  O          6.0560   25.2360   -3.5120 O.2   138  LYS138     -0.2867
    121  CB         3.9750   26.9540   -1.5730 C.3   138  LYS138      0.0271
    122  CG         3.1840   25.7430   -1.9190 C.3   138  LYS138      0.0035
    123  CD         1.8230   25.7120   -1.2180 C.3   138  LYS138      0.0206
    124  CE         0.7970   26.6600   -1.7740 C.3   138  LYS138      0.1093
    125  NZ         0.8500   26.9160   -3.2190 N.3   138  LYS138     -0.1314
@<TRIPOS>BOND
     1    63    62    2
     2    62    61    1
     3    60    61    1
     4    61    64    1
     5    58    57    2
     6    57    56    1
     7    64    65    1
     8    53    52    2
     9    65    66   ar
    10    65    67   ar
    11    50    51    1
    12    51    52    1
    13    51    54    1
    14    52    55   am
    15    66    68   ar
    16    67    70   ar
    17    67    69   ar
    18    70    72   ar
    19    56    55    1
    20    56    59    1
    21    68    69   ar
    22    72    73   ar
    23    69    71   ar
    24     1     2    1
    25    73    71   ar
    26    25    23   ar
    27     4     3    2
    28     2     3    1
    29     2     5    1
    30     3    10   am
    31    15    16    1
    32    15    14    1
    33    80    79    1
    34    23    24   ar
    35    23    22    1
    36    10    11    1
    37    10    16    1
    38    11    14    1
    39    11    12    1
    40    44    43    2
    41    22    21    1
    42    43    42    1
    43    17    12   am
    44    17    18    1
    45     5     6    1
    46    12    13    2
    47    79    81    1
    48    79    78    1
    49    21    18    1
    50    41    42    1
    51   120   119    2
    52    40    38    1
    53     9     7   ar
    54    42    45    1
    55   125   124    1
    56   119   118    1
    57    18    19    1
    58    39    38    1
    59     6     7    1
    60    78    75    1
    61     7     8   ar
    62    20    19    2
    63    38    37    1
    64    19    26   am
    65    88    87    1
    66    88    89    1
    67    45    46    1
    68   122   121    1
    69   122   123    1
    70   124   123    1
    71   118   121    1
    72   118   117    1
    73    87    86    1
    74    75    74    1
    75    75    76    1
    76    37    34    1
    77    46    47    1
    78    26    27    1
    79    34    33    1
    80    34    35    1
    81    76    82   am
    82    76    77    2
    83    82    83    1
    84    29    28    2
    85    33    28   am
    86    28    27    1
    87    27    30    1
    88    86    83    1
    89    47    49   am
    90    47    48    2
    91    83    84    1
    92    35    36    2
    93    94    91    1
    94    30    31    1
    95    30    32    1
    96    84    85    2
    97    91    90    1
    98    91    92    1
    99   104   103    1
   100   103   105    1
   101   103   102    2
   102    92    93    2
   103   101   102    1
   104   101   100    1
   105   109   108    2
   106   100    99    1
   107   108   107    1
   108    99    96    1
   109    95    96    1
   110   107   110    1
   111   107   106    1
   112   112   114   ar
   113   112   111   ar
   114    96    97    1
   115   110   111    1
   116   114   116   ar
   117   111   113   ar
   118    97    98    2
   119   116   115   ar
   120   113   115   ar
