@<TRIPOS>MOLECULE
tmp/1nhzA02.pdb
 103 100 0 0 0
SMALL
GASTEIGER

@<TRIPOS>ATOM
      1  N          6.1390   14.5580   -9.1170 N.3    68  GLN68      -0.1231
      2  CA         6.3120   13.2510   -8.4800 C.3    68  GLN68       0.1698
      3  C          7.1010   13.4070   -7.1750 C.2    68  GLN68       0.2592
      4  O          6.7640   12.8530   -6.1460 O.2    68  GLN68      -0.2718
      5  CB         7.0640   12.2970   -9.4180 C.3    68  GLN68       0.0381
      6  CG         7.1190   10.8290   -8.9630 C.3    68  GLN68       0.0905
      7  CD         7.9330    9.9540   -9.9090 C.2    68  GLN68       0.2608
      8  OE1        7.8260   10.0710  -11.1260 O.2    68  GLN68      -0.2717
      9  NE2        8.7540    9.0950   -9.3520 N.am   68  GLN68      -0.0878
     10  N          8.1740   14.1710   -7.2490 N.am   69  TYR69      -0.1962
     11  CA         9.0710   14.3530   -6.1340 C.3    69  TYR69       0.1771
     12  C          8.5600   15.3390   -5.0790 C.2    69  TYR69       0.2620
     13  O          9.0750   15.3600   -3.9830 O.2    69  TYR69      -0.2715
     14  CB        10.4250   14.8000   -6.6160 C.3    69  TYR69       0.0574
     15  CG        11.1510   13.8220   -7.5000 C.ar   69  TYR69      -0.0198
     16  CD1       12.2810   14.2220   -8.2110 C.ar   69  TYR69      -0.0009
     17  CD2       10.7460   12.4950   -7.6220 C.ar   69  TYR69      -0.0009
     18  CE1       12.9900   13.3080   -9.0470 C.ar   69  TYR69       0.0417
     19  CE2       11.4450   11.6020   -8.4680 C.ar   69  TYR69       0.0417
     20  CZ        12.5480   12.0170   -9.1580 C.ar   69  TYR69       0.1957
     21  OH        13.2170   11.1040   -9.9810 O.3    69  TYR69      -0.2866
     22  N          7.5310   16.1130   -5.3610 N.am   70  SER70      -0.1936
     23  CA         7.2090   17.1910   -4.4600 C.3    70  SER70       0.2055
     24  C          5.7790   17.2260   -4.0020 C.2    70  SER70       0.2643
     25  O          5.4910   17.9910   -3.0840 O.2    70  SER70      -0.2714
     26  CB         7.5720   18.5320   -5.1140 C.3    70  SER70       0.2130
     27  OG         6.5870   18.8310   -6.0970 O.3    70  SER70      -0.2179
     28  N          4.8890   16.4020   -4.5490 N.am   71  TRP71      -0.1959
     29  CA         3.4700   16.5060   -4.1450 C.3    71  TRP71       0.1771
     30  C          3.1970   16.3580   -2.6330 C.2    71  TRP71       0.2620
     31  O          2.3550   17.0460   -2.0740 O.2    71  TRP71      -0.2715
     32  CB         2.5420   15.5950   -4.9630 C.3    71  TRP71       0.0590
     33  CG         2.6810   14.1500   -4.7280 C.ar   71  TRP71       0.0006
     34  CD1        3.3300   13.2680   -5.5330 C.ar   71  TRP71       0.0946
     35  CD2        2.1340   13.3750   -3.6440 C.ar   71  TRP71       0.0152
     36  NE1        3.2330   12.0010   -5.0230 N.ar   71  TRP71      -0.2442
     37  CE2        2.5040   12.0310   -3.8640 C.ar   71  TRP71       0.0810
     38  CE3        1.3580   13.6730   -2.5220 C.ar   71  TRP71       0.0012
     39  CZ2        2.1350   10.9860   -2.9920 C.ar   71  TRP71       0.0191
     40  CZ3        0.9910   12.6350   -1.6470 C.ar   71  TRP71       0.0001
     41  CH2        1.3630   11.3160   -1.8930 C.ar   71  TRP71       0.0015
     42  N          3.9380   15.4980   -1.9560 N.am   72  MET72      -0.1963
     43  CA         3.6820   15.3300   -0.5300 C.3    72  MET72       0.1736
     44  C          4.1450   16.6050    0.2080 C.2    72  MET72       0.2617
     45  O          3.4820   17.0770    1.0950 O.2    72  MET72      -0.2715
     46  CB         4.3850   14.1010    0.0100 C.3    72  MET72       0.0427
     47  CG         4.1770   13.8040    1.5070 C.3    72  MET72       0.0599
     48  SD         2.4490   13.2920    1.8850 S.3    72  MET72      -0.1393
     49  CE         2.6330   11.4910    1.7120 C.3    72  MET72       0.0692
     50  N          5.3060   17.1320   -0.1590 N.am   73  SER73      -0.1950
     51  CA         5.8300   18.3430    0.4280 C.3    73  SER73       0.1924
     52  C          4.8430   19.5010    0.2910 C.2    73  SER73       0.2314
     53  O          4.6100   20.2300    1.2310 O.2    73  SER73      -0.2863
     54  CB         7.1410   18.7070   -0.2520 C.3    73  SER73       0.2116
     55  OG         7.8420   19.6490    0.5430 O.3    73  SER73      -0.2180
     56  N         13.5970   18.9980   -5.5860 N.3   145  SER145     -0.1217
     57  CA        14.3070   17.7720   -5.9330 C.3   145  SER145      0.1889
     58  C         14.3350   17.6040   -7.4120 C.2   145  SER145      0.2288
     59  O         13.3560   17.9120   -8.0700 O.2   145  SER145     -0.2866
     60  CB        13.6420   16.5110   -5.3710 C.3   145  SER145      0.2089
     61  OG        13.3200   16.6400   -4.0300 O.3   145  SER145     -0.2183
     62  N         12.1260   18.2620    3.5950 N.3   197  HIS197     -0.1241
     63  CA        12.6030   16.9610    3.1320 C.3   197  HIS197      0.1621
     64  C         12.5160   15.9020    4.2160 C.2   197  HIS197      0.2264
     65  O         12.2240   14.7570    3.9440 O.2   197  HIS197     -0.2867
     66  CB        14.0700   17.0040    2.7300 C.3   197  HIS197      0.0745
     67  CG        14.3170   17.6900    1.4390 C.ar  197  HIS197      0.0817
     68  ND1       13.7280   17.2840    0.2580 N.ar  197  HIS197     -0.2268
     69  CD2       15.1110   18.7450    1.1340 C.ar  197  HIS197      0.1154
     70  CE1       14.1490   18.0690   -0.7170 C.ar  197  HIS197      0.1986
     71  NE2       14.9910   18.9600   -0.2120 N.ar  197  HIS197     -0.2212
     72  N          8.7470   15.0960    4.8770 N.3   200  VAL200     -0.1245
     73  CA         8.2610   14.1600    3.8660 C.3   200  VAL200      0.1561
     74  C          8.8250   12.7430    4.0590 C.2   200  VAL200      0.2260
     75  O          8.1220   11.7800    3.8570 O.2   200  VAL200     -0.2867
     76  CB         8.6180   14.6450    2.4600 C.3   200  VAL200      0.0252
     77  CG1        8.3850   13.5500    1.4180 C.3   200  VAL200      0.0019
     78  CG2        7.8180   15.8660    2.1380 C.3   200  VAL200      0.0019
     79  N          6.3410    9.5380    4.2650 N.3   204  LEU204     -0.1245
     80  CA         6.3260    8.4650    3.2530 C.3   204  LEU204      0.1561
     81  C          6.3630    7.0460    3.8850 C.2   204  LEU204      0.2260
     82  O          6.0680    6.0580    3.2050 O.2   204  LEU204     -0.2867
     83  CB         7.4760    8.6300    2.2250 C.3   204  LEU204      0.0270
     84  CG         7.4500    9.8540    1.2810 C.3   204  LEU204      0.0019
     85  CD1        8.6770    9.8960    0.3460 C.3   204  LEU204      0.0001
     86  CD2        6.1790    9.9030    0.4750 C.3   204  LEU204      0.0001
     87  N         17.3640   10.4030   -6.7230 N.3   232  ILE232     -0.1245
     88  CA        16.8150   11.7130   -6.4320 C.3   232  ILE232      0.1561
     89  C         17.8480   12.5710   -5.6850 C.2   232  ILE232      0.2260
     90  O         18.4490   12.1250   -4.6930 O.2   232  ILE232     -0.2867
     91  CB        15.5270   11.5370   -5.6080 C.3   232  ILE232      0.0252
     92  CG1       14.6420   10.4590   -6.2530 C.3   232  ILE232      0.0019
     93  CG2       14.7680   12.8770   -5.4600 C.3   232  ILE232      0.0019
     94  CD1       13.2680   10.2620   -5.5740 C.3   232  ILE232      0.0001
     95  N         18.0150   15.7650   -3.4880 N.3   234  LYS234     -0.1245
     96  CA        17.2870   16.6990   -2.6640 C.3   234  LYS234      0.1561
     97  C         18.0330   18.0290   -2.6600 C.2   234  LYS234      0.2260
     98  O         19.1320   18.1160   -2.1580 O.2   234  LYS234     -0.2867
     99  CB        17.1920   16.1540   -1.2370 C.3   234  LYS234      0.0271
    100  CG        16.3250   14.9440   -1.1400 C.3   234  LYS234      0.0035
    101  CD        16.4530   14.1770    0.1760 C.3   234  LYS234      0.0206
    102  CE        15.9640   12.7100    0.0340 C.3   234  LYS234      0.1093
    103  NZ        14.9190   12.3220    1.0760 N.3   234  LYS234     -0.1314
@<TRIPOS>BOND
     1     8     7    2
     2    21    20    1
     3     7     9   am
     4     7     6    1
     5     5     6    1
     6     5     2    1
     7    20    18   ar
     8    20    19   ar
     9     1     2    1
    10    18    16   ar
    11     2     3    1
    12    19    17   ar
    13    16    15   ar
    14    59    58    2
    15    17    15   ar
    16    15    14    1
    17    58    57    1
    18    10     3   am
    19    10    11    1
    20     3     4    2
    21    87    88    1
    22    14    11    1
    23    88    89    1
    24    88    91    1
    25    92    91    1
    26    92    94    1
    27    11    12    1
    28    27    26    1
    29    57    56    1
    30    57    60    1
    31    89    90    2
    32    91    93    1
    33    34    36   ar
    34    34    33   ar
    35    60    61    1
    36    22    12   am
    37    22    23    1
    38    26    23    1
    39    12    13    2
    40    36    37   ar
    41    32    33    1
    42    32    29    1
    43    33    35   ar
    44    28    29    1
    45    28    24   am
    46    23    24    1
    47    29    30    1
    48    24    25    2
    49    37    35   ar
    50    37    39   ar
    51    35    38   ar
    52    95    96    1
    53    39    41   ar
    54    96    97    1
    55    96    99    1
    56    97    98    2
    57    30    31    2
    58    30    42   am
    59    38    40   ar
    60    42    43    1
    61    41    40   ar
    62    99   100    1
    63   100   101    1
    64    70    71   ar
    65    70    68   ar
    66    43    46    1
    67    43    44    1
    68    54    51    1
    69    54    55    1
    70    71    69   ar
    71    50    44   am
    72    50    51    1
    73    46    47    1
    74   102   101    1
    75   102   103    1
    76    44    45    2
    77    68    67   ar
    78    52    51    1
    79    52    53    2
    80    85    84    1
    81    86    84    1
    82    69    67   ar
    83    84    83    1
    84    77    76    1
    85    67    66    1
    86    47    48    1
    87    49    48    1
    88    78    76    1
    89    83    80    1
    90    76    73    1
    91    66    63    1
    92    63    62    1
    93    63    64    1
    94    82    81    2
    95    80    81    1
    96    80    79    1
    97    75    74    2
    98    73    74    1
    99    73    72    1
   100    65    64    2
