@<TRIPOS>MOLECULE
tmp/1nhzA00.pdb
 189 180 0 0 0
SMALL
GASTEIGER

@<TRIPOS>ATOM
      1  N         -8.8870    7.8510    8.1420 N.3    31  MET31      -0.1245
      2  CA        -7.8350    7.5230    7.1580 C.3    31  MET31       0.1570
      3  C         -8.4220    7.2350    5.7800 C.2    31  MET31       0.2261
      4  O         -7.8400    7.5690    4.7300 O.2    31  MET31      -0.2867
      5  CB        -7.0400    6.3100    7.6380 C.3    31  MET31       0.0387
      6  CG        -6.2510    6.5620    8.9040 C.3    31  MET31       0.0595
      7  SD        -5.2240    8.1020    8.9080 S.3    31  MET31      -0.1393
      8  CE        -4.1530    7.7780    7.4390 C.3    31  MET31       0.0692
      9  N         -9.3620   10.5370    4.4480 N.3    34  LEU34      -0.1231
     10  CA        -8.1450   11.2630    4.0600 C.3    34  LEU34       0.1693
     11  C         -7.5380   10.7200    2.7680 C.2    34  LEU34       0.2592
     12  O         -6.8270   11.4350    2.0530 O.2    34  LEU34      -0.2718
     13  CB        -7.1030   11.2360    5.1840 C.3    34  LEU34       0.0284
     14  CG        -7.2450   12.3130    6.2590 C.3    34  LEU34       0.0019
     15  CD1       -6.2020   12.0570    7.3400 C.3    34  LEU34       0.0001
     16  CD2       -7.0310   13.6870    5.6840 C.3    34  LEU34       0.0001
     17  N         -7.7930    9.4480    2.4880 N.am   35  ASN35      -0.1974
     18  CA        -7.3520    8.8410    1.2360 C.3    35  ASN35       0.1688
     19  C         -8.0160    9.5000    0.0780 C.2    35  ASN35       0.2292
     20  O         -7.3680    9.8930   -0.8600 O.2    35  ASN35      -0.2864
     21  CB        -7.6420    7.3400    1.1790 C.3    35  ASN35       0.1181
     22  CG        -6.8420    6.6640    0.0900 C.2    35  ASN35       0.2629
     23  OD1       -7.3270    6.4770   -1.0160 O.2    35  ASN35      -0.2716
     24  ND2       -5.5790    6.3800    0.3780 N.am   35  ASN35      -0.0877
     25  N         -9.6530   12.5090    0.1280 N.3    37  LEU37      -0.1231
     26  CA        -9.2680   13.9040    0.0820 C.3    37  LEU37       0.1693
     27  C         -7.8460   14.0640   -0.4900 C.2    37  LEU37       0.2593
     28  O         -7.5930   14.9830   -1.2550 O.2    37  LEU37      -0.2718
     29  CB        -9.3950   14.5380    1.4780 C.3    37  LEU37       0.0284
     30  CG        -8.8720   15.9780    1.6070 C.3    37  LEU37       0.0019
     31  CD1       -9.7180   16.9300    0.7610 C.3    37  LEU37       0.0001
     32  CD2       -8.8530   16.3900    3.0260 C.3    37  LEU37       0.0001
     33  N         -6.9120   13.1980   -0.1100 N.am   38  GLY38      -0.1942
     34  CA        -5.5350   13.2810   -0.6070 C.3    38  GLY38       0.2014
     35  C         -5.3730   13.1100   -2.1190 C.2    38  GLY38       0.2639
     36  O         -4.5940   13.8260   -2.7720 O.2    38  GLY38      -0.2714
     37  N         -6.1160   12.1690   -2.6870 N.am   39  GLY39      -0.1954
     38  CA        -6.2010   12.0390   -4.1290 C.3    39  GLY39       0.1869
     39  C         -6.7030   13.3180   -4.7540 C.2    39  GLY39       0.2309
     40  O         -6.1080   13.8200   -5.7310 O.2    39  GLY39      -0.2863
     41  N         -6.5090   16.3590   -3.5980 N.3    41  GLN41      -0.1231
     42  CA        -5.5540   17.4460   -3.4030 C.3    41  GLN41       0.1698
     43  C         -4.3840   17.3450   -4.3740 C.2    41  GLN41       0.2592
     44  O         -3.9200   18.3600   -4.8690 O.2    41  GLN41      -0.2718
     45  CB        -5.0300   17.4670   -1.9640 C.3    41  GLN41       0.0381
     46  CG        -6.0430   17.9430   -0.9260 C.3    41  GLN41       0.0905
     47  CD        -5.4310   18.3390    0.4330 C.2    41  GLN41       0.2608
     48  OE1       -6.1470   18.8280    1.3190 O.2    41  GLN41      -0.2717
     49  NE2       -4.1500   18.1390    0.5990 N.am   41  GLN41      -0.0878
     50  N         -3.9280   16.1140   -4.6470 N.am   42  VAL42      -0.1980
     51  CA        -2.9610   15.8250   -5.7010 C.3    42  VAL42       0.1595
     52  C         -3.4500   16.3420   -7.0520 C.2    42  VAL42       0.2287
     53  O         -2.7150   17.0220   -7.7330 O.2    42  VAL42      -0.2864
     54  CB        -2.6200   14.3250   -5.7890 C.3    42  VAL42       0.0276
     55  CG1       -1.7240   13.9940   -7.0000 C.3    42  VAL42       0.0022
     56  CG2       -1.8810   13.8910   -4.5860 C.3    42  VAL42       0.0022
     57  N          4.8890   16.4020   -4.5490 N.3    71  TRP71      -0.1227
     58  CA         3.4700   16.5060   -4.1450 C.3    71  TRP71       0.1737
     59  C          3.1970   16.3580   -2.6330 C.2    71  TRP71       0.2595
     60  O          2.3550   17.0460   -2.0740 O.2    71  TRP71      -0.2718
     61  CB         2.5420   15.5950   -4.9630 C.3    71  TRP71       0.0564
     62  CG         2.6810   14.1500   -4.7280 C.ar   71  TRP71       0.0003
     63  CD1        3.3300   13.2680   -5.5330 C.ar   71  TRP71       0.0946
     64  CD2        2.1340   13.3750   -3.6440 C.ar   71  TRP71       0.0152
     65  NE1        3.2330   12.0010   -5.0230 N.ar   71  TRP71      -0.2442
     66  CE2        2.5040   12.0310   -3.8640 C.ar   71  TRP71       0.0810
     67  CE3        1.3580   13.6730   -2.5220 C.ar   71  TRP71       0.0012
     68  CZ2        2.1350   10.9860   -2.9920 C.ar   71  TRP71       0.0191
     69  CZ3        0.9910   12.6350   -1.6470 C.ar   71  TRP71       0.0001
     70  CH2        1.3630   11.3160   -1.8930 C.ar   71  TRP71       0.0015
     71  N          3.9380   15.4980   -1.9560 N.am   72  MET72      -0.1979
     72  CA         3.6820   15.3300   -0.5300 C.3    72  MET72       0.1605
     73  C          4.1450   16.6050    0.2080 C.2    72  MET72       0.2287
     74  O          3.4820   17.0770    1.0950 O.2    72  MET72      -0.2864
     75  CB         4.3850   14.1010    0.0100 C.3    72  MET72       0.0413
     76  CG         4.1770   13.8040    1.5070 C.3    72  MET72       0.0598
     77  SD         2.4490   13.2920    1.8850 S.3    72  MET72      -0.1393
     78  CE         2.6330   11.4910    1.7120 C.3    72  MET72       0.0692
     79  N          1.5360   19.4440   -0.2810 N.3    75  MET75      -0.1230
     80  CA         0.3240   19.2140    0.5070 C.3    75  MET75       0.1702
     81  C          0.5270   19.3620    2.0140 C.2    75  MET75       0.2592
     82  O         -0.3480   19.8930    2.7020 O.2    75  MET75      -0.2718
     83  CB        -0.2710   17.8430    0.1660 C.3    75  MET75       0.0401
     84  CG        -0.9640   17.9130   -1.2010 C.3    75  MET75       0.0596
     85  SD        -1.3360   16.2730   -1.9650 S.3    75  MET75      -0.1393
     86  CE        -2.0560   15.5050   -0.5490 C.3    75  MET75       0.0692
     87  N          1.6740   18.9110    2.5170 N.am   76  ALA76      -0.1980
     88  CA         1.9810   19.0510    3.9590 C.3    76  ALA76       0.1597
     89  C          2.2160   20.5310    4.3070 C.2    76  ALA76       0.2287
     90  O          1.8460   20.9780    5.3890 O.2    76  ALA76      -0.2864
     91  CB         3.2300   18.2030    4.3270 C.3    76  ALA76       0.0319
     92  N         -1.1620   22.2490    4.1850 N.3    79  LEU79      -0.1245
     93  CA        -1.7780   21.8290    5.4310 C.3    79  LEU79       0.1561
     94  C         -1.2190   22.6660    6.5990 C.2    79  LEU79       0.2260
     95  O         -1.9770   23.1110    7.4480 O.2    79  LEU79      -0.2867
     96  CB        -1.6180   20.3360    5.6650 C.3    79  LEU79       0.0270
     97  CG        -2.0430   19.7000    6.9830 C.3    79  LEU79       0.0019
     98  CD1       -3.5050   19.8710    7.2500 C.3    79  LEU79       0.0001
     99  CD2       -1.6880   18.1870    6.9200 C.3    79  LEU79       0.0001
    100  N         -2.7500   26.2050    6.4860 N.3    82  ARG82      -0.1245
    101  CA        -4.1130   26.1770    6.9300 C.3    82  ARG82       0.1563
    102  C         -4.1990   26.0600    8.4420 C.2    82  ARG82       0.2260
    103  O         -5.0160   26.7440    9.0490 O.2    82  ARG82      -0.2867
    104  CB        -4.9130   25.0240    6.2660 C.3    82  ARG82       0.0307
    105  CG        -5.2490   25.2880    4.8170 C.3    82  ARG82       0.0489
    106  CD        -6.2780   24.3620    4.1950 C.3    82  ARG82       0.2205
    107  NE        -6.0490   22.9660    4.5080 N.pl3  82  ARG82      -0.0865
    108  CZ        -5.3150   22.1060    3.8070 C.cat  82  ARG82       0.5346
    109  NH1       -4.6530   22.4470    2.7260 N.pl3  82  ARG82       0.1354
    110  NH2       -5.1980   20.8640    4.2360 N.pl3  82  ARG82       0.1354
    111  N         -6.9410   19.5510    8.1800 N.3    94  PHE94      -0.1241
    112  CA        -6.9860   18.9280    6.8580 C.3    94  PHE94       0.1605
    113  C         -8.0070   19.5760    5.9170 C.2    94  PHE94       0.2264
    114  O         -7.7660   19.7390    4.7390 O.2    94  PHE94      -0.2867
    115  CB        -7.3150   17.4670    7.0040 C.3    94  PHE94       0.0534
    116  CG        -6.2060   16.6700    7.5500 C.ar   94  PHE94      -0.0203
    117  CD1       -5.0230   16.6330    6.9190 C.ar   94  PHE94      -0.0042
    118  CD2       -6.3580   15.9260    8.7060 C.ar   94  PHE94      -0.0042
    119  CE1       -3.9990   15.8970    7.4190 C.ar   94  PHE94      -0.0003
    120  CE2       -5.3430   15.1950    9.1890 C.ar   94  PHE94      -0.0003
    121  CZ        -4.1620   15.1760    8.5440 C.ar   94  PHE94      -0.0000
    122  N         -2.8690    8.2260   15.2760 N.3   110  MET110     -0.1245
    123  CA        -3.0300    9.6410   14.9260 C.3   110  MET110      0.1570
    124  C         -1.8730   10.5280   15.3680 C.2   110  MET110      0.2261
    125  O         -1.3380   11.2820   14.5550 O.2   110  MET110     -0.2867
    126  CB        -4.3150   10.2160   15.4980 C.3   110  MET110      0.0387
    127  CG        -5.5360    9.9100   14.6930 C.3   110  MET110      0.0595
    128  SD        -5.4380   10.5000   12.9530 S.3   110  MET110     -0.1393
    129  CE        -5.9650    9.0300   12.3320 C.3   110  MET110      0.0692
    130  N          1.4060   10.0510   13.2780 N.3   113  GLN113     -0.1231
    131  CA         1.4020   10.6610   11.9630 C.3   113  GLN113      0.1698
    132  C          1.3190   12.1880   12.0530 C.2   113  GLN113      0.2592
    133  O          2.0580   12.9350   11.3670 O.2   113  GLN113     -0.2718
    134  CB         0.2360   10.1250   11.1070 C.3   113  GLN113      0.0381
    135  CG         0.3440    8.6520   10.7220 C.3   113  GLN113      0.0905
    136  CD        -0.9330    8.1040   10.0740 C.2   113  GLN113      0.2608
    137  OE1       -1.9370    7.9060   10.7630 O.2   113  GLN113     -0.2717
    138  NE2       -0.9000    7.8680    8.7610 N.am  113  GLN113     -0.0878
    139  N          0.4090   12.6630   12.8960 N.am  114  CYS114     -0.1970
    140  CA         0.1290   14.1030   12.9860 C.3   114  CYS114      0.1712
    141  C          1.2650   14.9530   13.5310 C.2   114  CYS114      0.2296
    142  O          1.4220   16.0820   13.1450 O.2   114  CYS114     -0.2864
    143  CB        -1.1080   14.3360   13.8320 C.3   114  CYS114      0.0983
    144  SG        -2.6040   13.7200   13.0030 S.3   114  CYS114     -0.0798
    145  N          3.2710   16.6720   10.7800 N.3   117  MET117     -0.1245
    146  CA         2.5710   17.7460   10.0530 C.3   117  MET117      0.1570
    147  C          2.3750   19.0030   10.8980 C.2   117  MET117      0.2261
    148  O          2.3060   20.1180   10.3860 O.2   117  MET117     -0.2867
    149  CB         1.2330   17.2090    9.5580 C.3   117  MET117      0.0387
    150  CG         1.4460   16.0140    8.5850 C.3   117  MET117      0.0595
    151  SD        -0.0640   15.2560    7.9410 S.3   117  MET117     -0.1393
    152  CE        -0.2440   13.9210    9.1140 C.3   117  MET117      0.0692
    153  N          6.7550   11.0730    6.5310 N.3   203  LEU203     -0.1245
    154  CA         5.3790   10.8890    6.0650 C.3   203  LEU203      0.1561
    155  C          5.2720    9.7730    5.0170 C.2   203  LEU203      0.2260
    156  O          4.2340    9.1300    4.8940 O.2   203  LEU203     -0.2867
    157  CB         4.8220   12.2020    5.5020 C.3   203  LEU203      0.0270
    158  CG         4.5710   13.2970    6.5490 C.3   203  LEU203      0.0019
    159  CD1        3.9610   14.5280    5.8540 C.3   203  LEU203      0.0001
    160  CD2        3.6690   12.8110    7.6840 C.3   203  LEU203      0.0001
    161  N          4.3960    5.7550    6.0240 N.3   206  TYR206     -0.1227
    162  CA         3.0640    5.3260    6.3780 C.3   206  TYR206      0.1736
    163  C          2.3900    4.5640    5.2270 C.2   206  TYR206      0.2596
    164  O          2.8070    4.6340    4.0760 O.2   206  TYR206     -0.2718
    165  CB         2.2540    6.5460    6.8280 C.3   206  TYR206      0.0548
    166  CG         2.8060    7.0960    8.1250 C.ar  206  TYR206     -0.0200
    167  CD1        3.4340    8.3410    8.1560 C.ar  206  TYR206     -0.0009
    168  CD2        2.7680    6.3400    9.2870 C.ar  206  TYR206     -0.0009
    169  CE1        3.9830    8.8300    9.2770 C.ar  206  TYR206      0.0417
    170  CE2        3.3440    6.8130   10.4570 C.ar  206  TYR206      0.0417
    171  CZ         3.9430    8.0780   10.4510 C.ar  206  TYR206      0.1957
    172  OH         4.5080    8.6130   11.5890 O.3   206  TYR206     -0.2866
    173  N          1.3330    3.8470    5.5810 N.am  207  CYS207     -0.1956
    174  CA         0.6730    2.8810    4.7130 C.3   207  CYS207      0.1843
    175  C         -0.0360    3.5750    3.5890 C.2   207  CYS207      0.2625
    176  O         -0.8890    4.4040    3.8440 O.2   207  CYS207     -0.2714
    177  CB        -0.3450    2.0520    5.5130 C.3   207  CYS207      0.0997
    178  SG        -1.3910    0.9470    4.4610 S.3   207  CYS207     -0.0797
    179  N          0.3130    3.2370    2.3450 N.am  208  PHE208     -0.1974
    180  CA        -0.3510    3.8010    1.1820 C.3   208  PHE208      0.1639
    181  C         -1.6810    3.1240    0.9160 C.2   208  PHE208      0.2290
    182  O         -2.6870    3.7590    0.5620 O.2   208  PHE208     -0.2864
    183  CB         0.5190    3.6930   -0.0760 C.3   208  PHE208      0.0560
    184  CG        -0.2130    4.0870   -1.3440 C.ar  208  PHE208     -0.0200
    185  CD1       -0.4230    5.4280   -1.6710 C.ar  208  PHE208     -0.0042
    186  CD2       -0.6710    3.1190   -2.2160 C.ar  208  PHE208     -0.0042
    187  CE1       -1.0930    5.7750   -2.8510 C.ar  208  PHE208     -0.0003
    188  CE2       -1.3370    3.4660   -3.3960 C.ar  208  PHE208     -0.0003
    189  CZ        -1.5470    4.8010   -3.7090 C.ar  208  PHE208     -0.0000
@<TRIPOS>BOND
     1    53    52    2
     2    52    51    1
     3    55    54    1
     4    54    51    1
     5    54    56    1
     6    40    39    2
     7    51    50    1
     8    63    65   ar
     9    63    62   ar
    10    65    66   ar
    11    61    62    1
    12    61    58    1
    13    44    43    2
    14    39    38    1
    15    62    64   ar
    16    50    43   am
    17    57    58    1
    18    43    42    1
    19    58    59    1
    20    38    37    1
    21    66    64   ar
    22    66    68   ar
    23   189   188   ar
    24   189   187   ar
    25    64    67   ar
    26    41    42    1
    27    42    45    1
    28   188   186   ar
    29    68    70   ar
    30   187   185   ar
    31    36    35    2
    32    37    35   am
    33    59    60    2
    34    59    71   am
    35    67    69   ar
    36   186   184   ar
    37    35    34    1
    38    85    84    1
    39    85    86    1
    40    45    46    1
    41    71    72    1
    42    70    69   ar
    43   185   184   ar
    44   184   183    1
    45    28    27    2
    46    84    83    1
    47    23    22    2
    48    46    47    1
    49    20    19    2
    50    34    33    1
    51    72    75    1
    52    72    73    1
    53    27    33   am
    54    27    26    1
    55    79    80    1
    56   183   180    1
    57    75    76    1
    58    19    18    1
    59    26    25    1
    60    26    29    1
    61    22    24   am
    62    22    21    1
    63    83    80    1
    64    73    74    2
    65    47    49   am
    66    47    48    2
    67    80    81    1
    68   182   181    2
    69    31    30    1
    70   181   180    1
    71    21    18    1
    72   180   179    1
    73    18    17    1
    74    29    30    1
    75    76    77    1
    76    30    32    1
    77    78    77    1
    78    81    87   am
    79    81    82    2
    80    12    11    2
    81   179   175   am
    82    17    11   am
    83    87    88    1
    84   109   108    1
    85    11    10    1
    86   175   176    2
    87   175   174    1
    88   108   110    1
    89   108   107    2
    90    88    89    1
    91    88    91    1
    92    10     9    1
    93    10    13    1
    94   164   163    2
    95    92    93    1
    96   106   107    1
    97   106   105    1
    98    89    90    2
    99   178   177    1
   100   174   177    1
   101   174   173    1
   102     4     3    2
   103   114   113    2
   104   105   104    1
   105   156   155    2
   106   155   154    1
   107    13    14    1
   108   163   173   am
   109   163   162    1
   110    93    96    1
   111    93    94    1
   112   157   154    1
   113   157   158    1
   114    96    97    1
   115    16    14    1
   116     3     2    1
   117   159   158    1
   118   113   112    1
   119   161   162    1
   120   154   153    1
   121    14    15    1
   122   104   101    1
   123   162   165    1
   124   100   101    1
   125   158   160    1
   126    94    95    2
   127   165   166    1
   128   112   115    1
   129   112   111    1
   130   117   119   ar
   131   117   116   ar
   132    99    97    1
   133   101   102    1
   134    97    98    1
   135   115   116    1
   136     2     5    1
   137     2     1    1
   138   119   121   ar
   139     8     7    1
   140   116   118   ar
   141     5     6    1
   142   151   150    1
   143   151   152    1
   144   166   167   ar
   145   166   168   ar
   146   167   169   ar
   147   102   103    2
   148   121   120   ar
   149   150   149    1
   150   118   120   ar
   151   138   136   am
   152     6     7    1
   153   169   171   ar
   154   168   170   ar
   155   149   146    1
   156   146   145    1
   157   146   147    1
   158   136   135    1
   159   136   137    2
   160   148   147    2
   161   171   170   ar
   162   171   172    1
   163   135   134    1
   164   134   131    1
   165   133   132    2
   166   131   132    1
   167   131   130    1
   168   132   139   am
   169   129   128    1
   170   139   140    1
   171   128   127    1
   172   140   141    1
   173   140   143    1
   174   144   143    1
   175   142   141    2
   176   125   124    2
   177   127   126    1
   178   123   122    1
   179   123   124    1
   180   123   126    1
