@<TRIPOS>MOLECULE
tmp/1ni1B01.pdb
 180 178 0 0 0
SMALL
GASTEIGER

@<TRIPOS>ATOM
      1  N         43.7580   60.1550   -1.4490 N.3    71  TYR71      -0.1241
      2  CA        45.1010   59.9190   -0.9590 C.3    71  TYR71       0.1605
      3  C         45.2020   60.2660    0.5190 C.2    71  TYR71       0.2264
      4  O         46.2840   60.5040    1.0270 O.2    71  TYR71      -0.2867
      5  CB        46.1010   60.7400   -1.7730 C.3    71  TYR71       0.0534
      6  CG        46.6330   59.9820   -2.9660 C.ar   71  TYR71      -0.0201
      7  CD1       45.8360   59.7600   -4.0880 C.ar   71  TYR71      -0.0009
      8  CD2       47.8990   59.4010   -2.9350 C.ar   71  TYR71      -0.0009
      9  CE1       46.2900   58.9660   -5.1390 C.ar   71  TYR71       0.0417
     10  CE2       48.3550   58.6090   -3.9770 C.ar   71  TYR71       0.0417
     11  CZ        47.5470   58.3930   -5.0700 C.ar   71  TYR71       0.1957
     12  OH        48.0020   57.5910   -6.0910 O.3    71  TYR71      -0.2866
     13  N         47.1800   58.0650    2.8710 N.3    74  LEU74      -0.1245
     14  CA        48.6210   58.2320    2.7300 C.3    74  LEU74       0.1561
     15  C         48.9860   59.5840    3.3150 C.2    74  LEU74       0.2260
     16  O         49.9880   60.1870    2.9590 O.2    74  LEU74      -0.2867
     17  CB        49.0240   58.1710    1.2580 C.3    74  LEU74       0.0270
     18  CG        48.8600   56.8100    0.5760 C.3    74  LEU74       0.0019
     19  CD1       48.9650   56.9750   -0.9200 C.3    74  LEU74       0.0001
     20  CD2       49.9290   55.8600    1.0690 C.3    74  LEU74       0.0001
     21  N         52.2500   59.3480    4.6200 N.3    77  SER77      -0.1217
     22  CA        53.3150   58.9190    3.7160 C.3    77  SER77       0.1889
     23  C         53.5930   59.9430    2.6420 C.2    77  SER77       0.2288
     24  O         54.0610   59.6030    1.5670 O.2    77  SER77      -0.2866
     25  CB        52.9460   57.6040    3.0430 C.3    77  SER77       0.2089
     26  OG        52.2740   56.7520    3.9540 O.3    77  SER77      -0.2183
     27  N         56.7860   59.8510    0.9740 N.3    80  TRP80      -0.1241
     28  CA        56.8180   58.7360    0.0450 C.3    80  TRP80       0.1605
     29  C         56.2700   59.2700   -1.2740 C.2    80  TRP80       0.2264
     30  O         56.8890   59.1280   -2.3290 O.2    80  TRP80      -0.2867
     31  CB        55.9130   57.6090    0.5330 C.3    80  TRP80       0.0550
     32  CG        56.5990   56.4830    1.2170 C.ar   80  TRP80       0.0003
     33  CD1       56.2830   55.9630    2.4340 C.ar   80  TRP80       0.0946
     34  CD2       57.6400   55.6570    0.6880 C.ar   80  TRP80       0.0152
     35  NE1       57.0550   54.8630    2.6980 N.ar   80  TRP80      -0.2442
     36  CE2       57.8980   54.6500    1.6410 C.ar   80  TRP80       0.0810
     37  CE3       58.3770   55.6690   -0.5000 C.ar   80  TRP80       0.0012
     38  CZ2       58.8700   53.6540    1.4470 C.ar   80  TRP80       0.0191
     39  CZ3       59.3460   54.6720   -0.6990 C.ar   80  TRP80       0.0001
     40  CH2       59.5840   53.6810    0.2750 C.ar   80  TRP80       0.0015
     41  N         58.0860   59.0300   -5.1010 N.3    84  TRP84      -0.1241
     42  CA        57.4420   58.3060   -6.1800 C.3    84  TRP84       0.1605
     43  C         57.2290   59.1570   -7.4160 C.2    84  TRP84       0.2264
     44  O         57.5120   58.7210   -8.5320 O.2    84  TRP84      -0.2867
     45  CB        56.1110   57.7530   -5.6940 C.3    84  TRP84       0.0550
     46  CG        56.2640   56.7130   -4.6400 C.ar   84  TRP84       0.0003
     47  CD1       57.3120   55.8500   -4.4840 C.ar   84  TRP84       0.0946
     48  CD2       55.3240   56.3970   -3.6170 C.ar   84  TRP84       0.0152
     49  NE1       57.0790   55.0140   -3.4260 N.ar   84  TRP84      -0.2442
     50  CE2       55.8630   55.3290   -2.8770 C.ar   84  TRP84       0.0810
     51  CE3       54.0720   56.9110   -3.2550 C.ar   84  TRP84       0.0012
     52  CZ2       55.1940   54.7650   -1.7900 C.ar   84  TRP84       0.0191
     53  CZ3       53.4090   56.3490   -2.1740 C.ar   84  TRP84       0.0001
     54  CH2       53.9720   55.2890   -1.4570 C.ar   84  TRP84       0.0015
     55  N         60.6520   54.7260    6.9670 N.3   129  ALA129     -0.1245
     56  CA        60.1770   54.6810    5.5830 C.3   129  ALA129      0.1562
     57  C         60.1760   56.0970    5.0170 C.2   129  ALA129      0.2260
     58  O         60.8380   56.3770    4.0310 O.2   129  ALA129     -0.2867
     59  CB        58.7910   54.0670    5.5090 C.3   129  ALA129      0.0290
     60  N         62.9410   45.7350    6.0820 N.3   180  ARG180     -0.1245
     61  CA        62.7480   47.0470    5.4830 C.3   180  ARG180      0.1563
     62  C         63.5500   48.1330    6.1850 C.2   180  ARG180      0.2260
     63  O         64.1310   49.0130    5.5330 O.2   180  ARG180     -0.2867
     64  CB        61.2640   47.4280    5.4960 C.3   180  ARG180      0.0307
     65  CG        60.4810   46.9960    4.2680 C.3   180  ARG180      0.0489
     66  CD        58.9710   47.0500    4.4990 C.3   180  ARG180      0.2205
     67  NE        58.6210   47.0440    5.9150 N.pl3 180  ARG180     -0.0865
     68  CZ        57.8840   47.9710    6.5200 C.cat 180  ARG180      0.5346
     69  NH1       57.6380   47.8490    7.8140 N.pl3 180  ARG180      0.1354
     70  NH2       57.4000   49.0150    5.8490 N.pl3 180  ARG180      0.1354
     71  N         52.1760   41.5320  -10.3380 N.3   275  ASP275     -0.1239
     72  CA        51.9840   42.8950   -9.8700 C.3   275  ASP275      0.1674
     73  C         53.0740   43.8190  -10.3690 C.2   275  ASP275      0.2266
     74  O         54.2390   43.6570  -10.0600 O.2   275  ASP275     -0.2867
     75  CB        51.9390   42.9240   -8.3430 C.3   275  ASP275      0.1410
     76  CG        51.5830   44.2930   -7.7810 C.2   275  ASP275      0.3668
     77  OD1       50.5980   44.3870   -7.0200 O.co2 275  ASP275     -0.2456
     78  OD2       52.2950   45.2730   -8.0870 O.co2 275  ASP275     -0.2456
     79  N         54.5060   46.5730   -9.5600 N.3   277  CYS277     -0.1221
     80  CA        55.5890   47.0860   -8.7070 C.3   277  CYS277      0.1808
     81  C         56.7020   46.0660   -8.4910 C.2   277  CYS277      0.2601
     82  O         57.8630   46.4320   -8.2990 O.2   277  CYS277     -0.2717
     83  CB        55.0380   47.5700   -7.3580 C.3   277  CYS277      0.0970
     84  SG        54.2740   46.3010   -6.3060 S.3   277  CYS277     -0.0800
     85  N         56.3590   44.7850   -8.5490 N.am  278  TYR278     -0.1976
     86  CA        57.3540   43.7390   -8.3740 C.3   278  TYR278      0.1639
     87  C         58.2570   43.6640   -9.5970 C.2   278  TYR278      0.2290
     88  O         59.1710   42.8560   -9.6540 O.2   278  TYR278     -0.2864
     89  CB        56.6720   42.3950   -8.1260 C.3   278  TYR278      0.0560
     90  CG        56.0630   42.3240   -6.7430 C.ar  278  TYR278     -0.0198
     91  CD1       54.7180   42.0040   -6.5620 C.ar  278  TYR278     -0.0009
     92  CD2       56.8180   42.6600   -5.6230 C.ar  278  TYR278     -0.0009
     93  CE1       54.1360   42.0310   -5.3020 C.ar  278  TYR278      0.0417
     94  CE2       56.2540   42.6900   -4.3620 C.ar  278  TYR278      0.0417
     95  CZ        54.9120   42.3740   -4.2060 C.ar  278  TYR278      0.1957
     96  OH        54.3520   42.3840   -2.9520 O.3   278  TYR278     -0.2866
     97  N         60.9500   45.3880   -7.5200 N.3   281  TRP281     -0.1241
     98  CA        61.3260   44.6710   -6.3250 C.3   281  TRP281      0.1605
     99  C         61.9200   43.3260   -6.6660 C.2   281  TRP281      0.2264
    100  O         62.9550   42.9500   -6.1420 O.2   281  TRP281     -0.2867
    101  CB        60.1000   44.4850   -5.4460 C.3   281  TRP281      0.0550
    102  CG        59.5010   45.7790   -4.9590 C.ar  281  TRP281      0.0003
    103  CD1       58.1990   46.1560   -5.0610 C.ar  281  TRP281      0.0946
    104  CD2       60.1600   46.8410   -4.2510 C.ar  281  TRP281      0.0152
    105  NE1       58.0040   47.3690   -4.4630 N.ar  281  TRP281     -0.2442
    106  CE2       59.1950   47.8110   -3.9610 C.ar  281  TRP281      0.0810
    107  CE3       61.4820   47.0550   -3.8360 C.ar  281  TRP281      0.0012
    108  CZ2       59.4920   48.9750   -3.2780 C.ar  281  TRP281      0.0191
    109  CZ3       61.7770   48.2210   -3.1560 C.ar  281  TRP281      0.0001
    110  CH2       60.7890   49.1640   -2.8830 C.ar  281  TRP281      0.0015
    111  N         48.9730   48.0560  -10.8250 N.3   330  ASP330     -0.1239
    112  CA        49.1480   46.6770  -10.4140 C.3   330  ASP330      0.1674
    113  C         49.0790   45.8170  -11.6620 C.2   330  ASP330      0.2266
    114  O         50.0820   45.5980  -12.3300 O.2   330  ASP330     -0.2867
    115  CB        48.0280   46.3090   -9.4410 C.3   330  ASP330      0.1410
    116  CG        48.2110   44.9530   -8.8260 C.2   330  ASP330      0.3668
    117  OD1       48.8100   44.0810   -9.4690 O.co2 330  ASP330     -0.2456
    118  OD2       47.7470   44.7620   -7.6840 O.co2 330  ASP330     -0.2456
    119  N         42.8310   47.0500  -12.2400 N.3   334  LYS334     -0.1245
    120  CA        43.0930   47.7820  -11.0030 C.3   334  LYS334      0.1561
    121  C         43.0770   49.2810  -11.2610 C.2   334  LYS334      0.2260
    122  O         42.8150   49.7150  -12.3770 O.2   334  LYS334     -0.2867
    123  CB        44.4410   47.3610  -10.4240 C.3   334  LYS334      0.0271
    124  CG        44.5630   45.8570  -10.2130 C.3   334  LYS334      0.0035
    125  CD        43.9080   45.4260   -8.9080 C.3   334  LYS334      0.0206
    126  CE        44.3850   44.0470   -8.4620 C.3   334  LYS334      0.1093
    127  NZ        44.7630   44.0260   -7.0140 N.3   334  LYS334     -0.1314
    128  N         47.8280   54.7210   -9.2210 N.3   337  ASP337     -0.1225
    129  CA        48.3420   55.4230   -8.0610 C.3   337  ASP337      0.1805
    130  C         49.7900   55.6900   -8.4000 C.2   337  ASP337      0.2598
    131  O         50.2910   55.1710   -9.3940 O.2   337  ASP337     -0.2718
    132  CB        48.2050   54.5910   -6.7780 C.3   337  ASP337      0.1424
    133  CG        49.0790   53.3630   -6.7670 C.2   337  ASP337      0.3668
    134  OD1       50.3060   53.4990   -6.5860 O.co2 337  ASP337     -0.2456
    135  OD2       48.5320   52.2570   -6.9230 O.co2 337  ASP337     -0.2456
    136  N         50.4540   56.5070   -7.5910 N.am  338  PHE338     -0.1962
    137  CA        51.8480   56.8640   -7.8380 C.3   338  PHE338      0.1771
    138  C         52.8660   55.8370   -7.3590 C.2   338  PHE338      0.2620
    139  O         53.9820   55.7840   -7.8760 O.2   338  PHE338     -0.2715
    140  CB        52.1150   58.2350   -7.2270 C.3   338  PHE338      0.0574
    141  CG        51.0790   59.2560   -7.6030 C.ar  338  PHE338     -0.0200
    142  CD1       49.9030   59.3590   -6.8800 C.ar  338  PHE338     -0.0042
    143  CD2       51.2460   60.0630   -8.7220 C.ar  338  PHE338     -0.0042
    144  CE1       48.8960   60.2500   -7.2610 C.ar  338  PHE338     -0.0003
    145  CE2       50.2510   60.9570   -9.1150 C.ar  338  PHE338     -0.0003
    146  CZ        49.0650   61.0500   -8.3820 C.ar  338  PHE338     -0.0000
    147  N         52.4940   55.0090   -6.3880 N.am  339  TYR339     -0.1960
    148  CA        53.4260   53.9880   -5.9310 C.3   339  TYR339      0.1771
    149  C         53.7110   53.0600   -7.1020 C.2   339  TYR339      0.2619
    150  O         54.8450   52.9400   -7.5390 O.2   339  TYR339     -0.2715
    151  CB        52.8430   53.1660   -4.7830 C.3   339  TYR339      0.0574
    152  CG        53.5030   51.8020   -4.5910 C.ar  339  TYR339     -0.0198
    153  CD1       54.7270   51.6810   -3.9310 C.ar  339  TYR339     -0.0009
    154  CD2       52.8930   50.6360   -5.0480 C.ar  339  TYR339     -0.0009
    155  CE1       55.3200   50.4350   -3.7360 C.ar  339  TYR339      0.0417
    156  CE2       53.4850   49.3840   -4.8540 C.ar  339  TYR339      0.0417
    157  CZ        54.6900   49.2930   -4.1990 C.ar  339  TYR339      0.1957
    158  OH        55.2540   48.0550   -4.0050 O.3   339  TYR339     -0.2866
    159  N         52.6710   52.4030   -7.6070 N.am  340  HIS340     -0.1973
    160  CA        52.8110   51.4780   -8.7280 C.3   340  HIS340      0.1656
    161  C         53.3810   52.1740   -9.9450 C.2   340  HIS340      0.2291
    162  O         54.1770   51.6050  -10.6770 O.2   340  HIS340     -0.2864
    163  CB        51.4590   50.8750   -9.0870 C.3   340  HIS340      0.0771
    164  CG        51.0980   49.6850   -8.2590 C.ar  340  HIS340      0.0820
    165  ND1       50.1440   49.7360   -7.2700 N.ar  340  HIS340     -0.2267
    166  CD2       51.5920   48.4270   -8.2430 C.ar  340  HIS340      0.1154
    167  CE1       50.0620   48.5590   -6.6800 C.ar  340  HIS340      0.1986
    168  NE2       50.9320   47.7470   -7.2530 N.ar  340  HIS340     -0.2212
    169  N         57.0530   52.3860   -9.4990 N.3   343  TYR343     -0.1241
    170  CA        57.7810   51.1240   -9.5330 C.3   343  TYR343      0.1605
    171  C         57.5840   50.3750  -10.8400 C.2   343  TYR343      0.2264
    172  O         58.3640   49.4900  -11.1860 O.2   343  TYR343     -0.2867
    173  CB        57.4030   50.2900   -8.2990 C.3   343  TYR343      0.0534
    174  CG        58.0780   50.8290   -7.0470 C.ar  343  TYR343     -0.0201
    175  CD1       57.3500   51.4710   -6.0360 C.ar  343  TYR343     -0.0009
    176  CD2       59.4600   50.7480   -6.9060 C.ar  343  TYR343     -0.0009
    177  CE1       58.0020   52.0280   -4.9130 C.ar  343  TYR343      0.0417
    178  CE2       60.1130   51.2960   -5.7990 C.ar  343  TYR343      0.0417
    179  CZ        59.3840   51.9320   -4.8110 C.ar  343  TYR343      0.1957
    180  OH        60.0700   52.4740   -3.7510 O.3   343  TYR343     -0.2866
@<TRIPOS>BOND
     1   122   121    2
     2   114   113    2
     3   119   120    1
     4   113   112    1
     5   121   120    1
     6   172   171    2
     7   120   123    1
     8   171   170    1
     9   111   112    1
    10   162   161    2
    11   123   124    1
    12   112   115    1
    13    73    74    2
    14    73    72    1
    15    71    72    1
    16   124   125    1
    17   161   160    1
    18    72    75    1
    19    88    87    2
    20    87    86    1
    21    79    80    1
    22   170   169    1
    23   170   173    1
    24   117   116   ar
    25   115   116    1
    26   131   130    2
    27   128   129    1
    28   145   143   ar
    29   145   146   ar
    30   163   160    1
    31   163   164    1
    32   125   126    1
    33   116   118   ar
    34   160   159    1
    35   143   141   ar
    36    80    81    1
    37    80    83    1
    38    85    81   am
    39    85    86    1
    40    44    43    2
    41    81    82    2
    42   126   127    1
    43   130   129    1
    44   130   136   am
    45   146   144   ar
    46    86    89    1
    47    75    76    1
    48   173   174    1
    49   164   166   ar
    50   164   165   ar
    51   166   168   ar
    52    89    90    1
    53    78    76   ar
    54   129   132    1
    55   139   138    2
    56   137   136    1
    57   137   138    1
    58   137   140    1
    59    76    77   ar
    60   159   149   am
    61   141   140    1
    62   141   142   ar
    63   150   149    2
    64    97    98    1
    65    43    42    1
    66   138   147   am
    67    83    84    1
    68   165   167   ar
    69   144   142   ar
    70   168   167   ar
    71   149   148    1
    72   174   176   ar
    73   174   175   ar
    74   135   133   ar
    75   176   178   ar
    76   132   133    1
    77   133   134   ar
    78    90    91   ar
    79    90    92   ar
    80    99    98    1
    81    99   100    2
    82    91    93   ar
    83   147   148    1
    84    98   101    1
    85    42    45    1
    86    42    41    1
    87    12    11    1
    88   175   177   ar
    89   148   151    1
    90   178   179   ar
    91    45    46    1
    92    92    94   ar
    93   101   102    1
    94    93    95   ar
    95     9    11   ar
    96     9     7   ar
    97    11    10   ar
    98   103   102   ar
    99   103   105   ar
   100   154   156   ar
   101   154   152   ar
   102   102   104   ar
   103   177   179   ar
   104   156   157   ar
   105   179   180    1
   106   151   152    1
   107    46    47   ar
   108    46    48   ar
   109   152   153   ar
   110    47    49   ar
   111   105   106   ar
   112    94    95   ar
   113   104   106   ar
   114   104   107   ar
   115    95    96    1
   116   157   158    1
   117   157   155   ar
   118     7     6   ar
   119    10     8   ar
   120   106   108   ar
   121   153   155   ar
   122   107   109   ar
   123    48    51   ar
   124    48    50   ar
   125    49    50   ar
   126   108   110   ar
   127    51    53   ar
   128   109   110   ar
   129     6     8   ar
   130     6     5    1
   131    50    52   ar
   132    30    29    2
   133    53    54   ar
   134    52    54   ar
   135     5     2    1
   136     1     2    1
   137    29    28    1
   138     2     3    1
   139    19    18    1
   140    39    37   ar
   141    39    40   ar
   142    37    34   ar
   143    28    31    1
   144    28    27    1
   145    40    38   ar
   146     3     4    2
   147    31    32    1
   148    18    20    1
   149    18    17    1
   150    34    32   ar
   151    34    36   ar
   152    32    33   ar
   153    17    14    1
   154    38    36   ar
   155    24    23    2
   156    36    35   ar
   157    33    35   ar
   158    23    22    1
   159    14    13    1
   160    14    15    1
   161    16    15    2
   162    25    22    1
   163    25    26    1
   164    22    21    1
   165    58    57    2
   166    65    66    1
   167    65    64    1
   168    66    67    1
   169    57    56    1
   170    61    64    1
   171    61    60    1
   172    61    62    1
   173    59    56    1
   174    63    62    2
   175    56    55    1
   176    70    68    1
   177    67    68    2
   178    68    69    1
