@<TRIPOS>MOLECULE
tmp/1nihD00.pdb
 215 205 0 0 0
SMALL
GASTEIGER

@<TRIPOS>ATOM
      1  N         30.3770   10.3910   -3.0290 N.3    28  LEU28      -0.1245
      2  CA        29.3370    9.6150   -3.7340 C.3    28  LEU28       0.1561
      3  C         29.7190    8.1330   -3.7800 C.2    28  LEU28       0.2260
      4  O         28.8700    7.2550   -3.6190 O.2    28  LEU28      -0.2867
      5  CB        29.1960   10.1170   -5.1720 C.3    28  LEU28       0.0270
      6  CG        28.0070    9.4930   -5.9520 C.3    28  LEU28       0.0019
      7  CD1       26.7010   10.2650   -5.7970 C.3    28  LEU28       0.0001
      8  CD2       28.2330    9.3980   -7.4590 C.3    28  LEU28       0.0001
      9  N         29.0430    6.8120   -0.1870 N.3    31  LEU31      -0.1245
     10  CA        27.6090    6.6200   -0.0290 C.3    31  LEU31       0.1561
     11  C         27.2250    5.2620   -0.5790 C.2    31  LEU31       0.2260
     12  O         26.4690    4.5760    0.1010 O.2    31  LEU31      -0.2867
     13  CB        26.8690    7.7180   -0.7970 C.3    31  LEU31       0.0270
     14  CG        25.3630    7.5340   -0.8670 C.3    31  LEU31       0.0019
     15  CD1       24.8130    7.8880    0.4930 C.3    31  LEU31       0.0001
     16  CD2       24.7260    8.4370   -1.9360 C.3    31  LEU31       0.0001
     17  N         21.4260    2.3950   -1.7230 N.3    38  THR38      -0.1274
     18  CA        21.3990    3.5290   -2.5790 C.3    38  THR38       0.1548
     19  C         21.8980    3.1710   -3.9760 C.3    38  THR38       0.2036
     20  O         21.7340    4.0640   -4.7920 O.3    38  THR38      -0.2187
     21  CB        22.2920    4.6110   -2.0380 C.3    38  THR38       0.1721
     22  OG1       23.6200    4.1610   -1.9020 O.3    38  THR38      -0.2215
     23  CG2       21.7210    5.0450   -0.6830 C.3    38  THR38       0.0371
     24  N         19.7680    3.5220   -7.5790 N.3    41  PHE41      -0.1227
     25  CA        19.5840    4.4930   -8.6950 C.3    41  PHE41       0.1736
     26  C         20.7980    4.5070   -9.6390 C.2    41  PHE41       0.2592
     27  O         20.8540    5.2760  -10.6060 O.2    41  PHE41      -0.2718
     28  CB        19.4360    5.8850   -8.1470 C.3    41  PHE41       0.0547
     29  CG        18.4370    5.9300   -7.0180 C.ar   41  PHE41      -0.0202
     30  CD1       17.0930    6.0580   -7.2720 C.ar   41  PHE41      -0.0042
     31  CD2       18.9090    5.8370   -5.7330 C.ar   41  PHE41      -0.0042
     32  CE1       16.2200    6.0910   -6.2160 C.ar   41  PHE41      -0.0003
     33  CE2       18.0440    5.8780   -4.6750 C.ar   41  PHE41      -0.0003
     34  CZ        16.6970    6.0040   -4.9210 C.ar   41  PHE41      -0.0000
     35  N         21.8280    3.6800   -9.4210 N.am   42  PHE42      -0.2029
     36  CA        23.0420    3.8390  -10.2230 C.3    42  PHE42       0.1325
     37  C         23.4580    2.5420  -10.8940 C.3    42  PHE42       0.2039
     38  O         24.6690    2.4010  -11.0290 O.3    42  PHE42      -0.2185
     39  CB        24.2180    4.2430   -9.3500 C.3    42  PHE42       0.0507
     40  CG        23.9920    5.6190   -8.7210 C.ar   42  PHE42      -0.0204
     41  CD1       24.0820    6.7270   -9.5160 C.ar   42  PHE42      -0.0042
     42  CD2       23.7000    5.7510   -7.3820 C.ar   42  PHE42      -0.0042
     43  CE1       23.8850    7.9750   -8.9930 C.ar   42  PHE42      -0.0003
     44  CE2       23.4900    7.0050   -6.8340 C.ar   42  PHE42      -0.0003
     45  CZ        23.5890    8.1200   -7.6530 C.ar   42  PHE42      -0.0000
     46  N         23.4150    1.4120  -13.9980 N.3    44  SER44      -0.1202
     47  CA        23.7210    1.9050  -15.3990 C.3    44  SER44       0.2020
     48  C         25.1950    2.2910  -15.5800 C.2    44  SER44       0.2618
     49  O         25.6340    2.4050  -16.7360 O.2    44  SER44      -0.2717
     50  CB        22.8490    3.1570  -15.6490 C.3    44  SER44       0.2103
     51  OG        23.5830    4.1670  -16.3550 O.3    44  SER44      -0.2182
     52  N         25.8590    2.4630  -14.4060 N.am   45  PHE45      -0.1975
     53  CA        27.2080    2.9130  -13.9480 C.3    45  PHE45       0.1639
     54  C         28.2010    1.7780  -13.8600 C.2    45  PHE45       0.2290
     55  O         29.4010    2.0020  -13.6670 O.2    45  PHE45      -0.2864
     56  CB        27.1570    3.4590  -12.5430 C.3    45  PHE45       0.0560
     57  CG        26.8830    4.9390  -12.4640 C.ar   45  PHE45      -0.0200
     58  CD1       25.9750    5.4980  -13.2970 C.ar   45  PHE45      -0.0042
     59  CD2       27.5460    5.7020  -11.5640 C.ar   45  PHE45      -0.0042
     60  CE1       25.7200    6.8270  -13.2430 C.ar   45  PHE45      -0.0003
     61  CE2       27.3060    7.0520  -11.5040 C.ar   45  PHE45      -0.0003
     62  CZ        26.3800    7.6230  -12.3520 C.ar   45  PHE45      -0.0000
     63  N         30.1890   11.6210  -11.6990 N.3    63  HIS63      -0.1241
     64  CA        28.9640   12.2710  -11.3190 C.3    63  HIS63       0.1621
     65  C         29.1470   12.9140   -9.9290 C.2    63  HIS63       0.2264
     66  O         28.4040   13.8070   -9.5560 O.2    63  HIS63      -0.2867
     67  CB        27.9020   11.1790  -11.3490 C.3    63  HIS63       0.0745
     68  CG        26.5010   11.6630  -11.0880 C.ar   63  HIS63       0.0817
     69  ND1       25.7530   12.3100  -12.0610 N.ar   63  HIS63      -0.2268
     70  CD2       25.7420   11.5780   -9.9800 C.ar   63  HIS63       0.1154
     71  CE1       24.5810   12.5960  -11.5300 C.ar   63  HIS63       0.1986
     72  NE2       24.5590   12.1660  -10.2860 N.ar   63  HIS63      -0.2212
     73  N         29.9960   16.3130  -10.4770 N.3    66  LYS66      -0.1231
     74  CA        28.8240   17.0250  -10.8760 C.3    66  LYS66       0.1693
     75  C         27.8950   17.2790   -9.6540 C.2    66  LYS66       0.2591
     76  O         27.4590   18.4050   -9.4870 O.2    66  LYS66      -0.2718
     77  CB        28.2410   16.1260  -11.9860 C.3    66  LYS66       0.0285
     78  CG        27.1240   16.4880  -12.9800 C.3    66  LYS66       0.0035
     79  CD        27.1510   15.4630  -14.1570 C.3    66  LYS66       0.0206
     80  CE        26.1040   15.7440  -15.2580 C.3    66  LYS66       0.1093
     81  NZ        25.0330   14.7310  -15.2740 N.3    66  LYS66      -0.1314
     82  N         27.5580   16.3570   -8.7860 N.am   67  VAL67      -0.1980
     83  CA        27.0180   16.5810   -7.4250 C.3    67  VAL67       0.1595
     84  C         27.7490   17.6290   -6.5990 C.2    67  VAL67       0.2287
     85  O         27.1030   18.4730   -5.9620 O.2    67  VAL67      -0.2864
     86  CB        27.1520   15.3260   -6.6920 C.3    67  VAL67       0.0276
     87  CG1       26.8830   15.4510   -5.2090 C.3    67  VAL67       0.0022
     88  CG2       26.1320   14.5030   -7.3100 C.3    67  VAL67       0.0022
     89  N         27.3230   21.4030   -8.1920 N.3    70  ALA70      -0.1231
     90  CA        26.0280   21.9970   -7.7060 C.3    70  ALA70       0.1694
     91  C         25.8690   22.3820   -6.2160 C.2    70  ALA70       0.2592
     92  O         25.1770   23.3350   -5.8330 O.2    70  ALA70      -0.2718
     93  CB        24.9950   20.9530   -8.0030 C.3    70  ALA70       0.0304
     94  N         26.5420   21.5940   -5.4280 N.am   71  PHE71      -0.1976
     95  CA        26.7070   21.8110   -4.0240 C.3    71  PHE71       0.1639
     96  C         27.4260   23.1600   -3.7780 C.2    71  PHE71       0.2290
     97  O         27.0130   23.9680   -2.9460 O.2    71  PHE71      -0.2864
     98  CB        27.5100   20.6040   -3.4890 C.3    71  PHE71       0.0560
     99  CG        27.4100   20.7340   -1.9860 C.ar   71  PHE71      -0.0200
    100  CD1       26.3650   20.2040   -1.2790 C.ar   71  PHE71      -0.0042
    101  CD2       28.4000   21.4040   -1.3300 C.ar   71  PHE71      -0.0042
    102  CE1       26.3370   20.3870    0.0850 C.ar   71  PHE71      -0.0003
    103  CE2       28.3710   21.5850    0.0010 C.ar   71  PHE71      -0.0003
    104  CZ        27.3390   21.0850    0.7240 C.ar   71  PHE71      -0.0000
    105  N         18.0380   25.5690   -5.5400 N.3    85  PHE85      -0.1298
    106  CA        17.8580   24.1170   -5.8220 C.3    85  PHE85       0.1290
    107  C         16.4470   23.7340   -6.2400 C.3    85  PHE85       0.2013
    108  O         16.3490   22.5260   -6.4630 O.3    85  PHE85      -0.2188
    109  CB        18.1520   23.3330   -4.5590 C.3    85  PHE85       0.0480
    110  CG        19.6500   23.3060   -4.2350 C.ar   85  PHE85      -0.0206
    111  CD1       20.4840   22.5910   -5.0400 C.ar   85  PHE85      -0.0042
    112  CD2       20.1670   23.9820   -3.1620 C.ar   85  PHE85      -0.0042
    113  CE1       21.8300   22.5560   -4.7800 C.ar   85  PHE85      -0.0003
    114  CE2       21.5090   23.9500   -2.8900 C.ar   85  PHE85      -0.0003
    115  CZ        22.3430   23.2350   -3.7060 C.ar   85  PHE85      -0.0000
    116  N         16.8460   21.2610   -9.6020 N.3    88  LEU88      -0.1301
    117  CA        17.1620   19.8720   -9.2800 C.3    88  LEU88       0.1247
    118  C         16.2020   19.2920   -8.2620 C.3    88  LEU88       0.2009
    119  O         16.2020   18.0840   -8.2320 O.3    88  LEU88      -0.2188
    120  CB        18.5040   19.7130   -8.6450 C.3    88  LEU88       0.0217
    121  CG        19.6060   20.2760   -9.4730 C.3    88  LEU88       0.0015
    122  CD1       20.8250   20.4560   -8.5590 C.3    88  LEU88       0.0000
    123  CD2       19.8550   19.3210  -10.6380 C.3    88  LEU88       0.0000
    124  N         13.6790   17.8580  -10.2960 N.3    91  LEU91      -0.1231
    125  CA        14.2510   16.8200  -11.1500 C.3    91  LEU91       0.1693
    126  C         14.5320   15.5330  -10.3710 C.2    91  LEU91       0.2592
    127  O         14.2970   14.4770  -10.9670 O.2    91  LEU91      -0.2718
    128  CB        15.5510   17.3740  -11.7230 C.3    91  LEU91       0.0284
    129  CG        16.3800   16.2210  -12.2780 C.3    91  LEU91       0.0019
    130  CD1       15.9730   15.8490  -13.6940 C.3    91  LEU91       0.0001
    131  CD2       17.8810   16.4630  -12.3080 C.3    91  LEU91       0.0001
    132  N         14.9890   15.5940   -9.1580 N.am   92  HIS92      -0.1976
    133  CA        15.1660   14.3680   -8.4400 C.3    92  HIS92       0.1656
    134  C         13.8190   13.7770   -8.0740 C.2    92  HIS92       0.2291
    135  O         13.7890   12.5550   -8.0030 O.2    92  HIS92      -0.2864
    136  CB        15.9580   14.6460   -7.1950 C.3    92  HIS92       0.0771
    137  CG        17.3950   14.9590   -7.5720 C.ar   92  HIS92       0.0820
    138  ND1       17.7990   16.1350   -8.1330 N.ar   92  HIS92      -0.2267
    139  CD2       18.4780   14.1760   -7.4310 C.ar   92  HIS92       0.1154
    140  CE1       19.1380   16.0830   -8.3500 C.ar   92  HIS92       0.1986
    141  NE2       19.5820   14.8500   -7.9120 N.ar   92  HIS92      -0.2212
    142  N         13.6480   11.5790  -11.5200 N.3    96  LEU96      -0.1245
    143  CA        14.5910   10.5320  -10.9860 C.3    96  LEU96       0.1561
    144  C         13.9790    9.6990   -9.8700 C.2    96  LEU96       0.2260
    145  O         14.4950    8.5970   -9.6560 O.2    96  LEU96      -0.2867
    146  CB        15.8220   11.1880  -10.4030 C.3    96  LEU96       0.0270
    147  CG        16.4890   11.9550  -11.5030 C.3    96  LEU96       0.0019
    148  CD1       17.7990   12.5150  -11.1000 C.3    96  LEU96       0.0001
    149  CD2       16.7190   11.0490  -12.6770 C.3    96  LEU96       0.0001
    150  N         13.9430   10.1030   -6.5120 N.3    98  VAL98      -0.1245
    151  CA        14.8890    9.7700   -5.5040 C.3    98  VAL98       0.1561
    152  C         14.2510   10.1500   -4.1900 C.2    98  VAL98       0.2260
    153  O         13.7970   11.2650   -4.0200 O.2    98  VAL98      -0.2867
    154  CB        16.1830   10.5070   -5.8400 C.3    98  VAL98       0.0252
    155  CG1       17.2460   10.5070   -4.8070 C.3    98  VAL98       0.0019
    156  CG2       16.8090    9.8840   -7.0810 C.3    98  VAL98       0.0019
    157  N         17.8850    9.8750    1.0490 N.3   102  ASN102     -0.1225
    158  CA        19.2640    9.7730    0.5000 C.3   102  ASN102      0.1784
    159  C         20.0540   11.0800    0.5390 C.2   102  ASN102      0.2593
    160  O         21.2770   11.0080    0.7180 O.2   102  ASN102     -0.2718
    161  CB        19.1320    9.3750   -0.9330 C.3   102  ASN102      0.1169
    162  CG        18.3660    8.0680   -0.9730 C.2   102  ASN102      0.2627
    163  OD1       18.8380    7.0950   -0.4020 O.2   102  ASN102     -0.2716
    164  ND2       17.2260    8.0470   -1.6050 N.am  102  ASN102     -0.0877
    165  N         19.3780   12.2130    0.3800 N.am  103  PHE103     -0.2029
    166  CA        20.0250   13.5160    0.5000 C.3   103  PHE103      0.1325
    167  C         20.5950   13.7380    1.8860 C.3   103  PHE103      0.2039
    168  O         21.5610   14.5100    1.9360 O.3   103  PHE103     -0.2185
    169  CB        19.0570   14.6470    0.3180 C.3   103  PHE103      0.0507
    170  CG        18.3000   14.6590   -0.9870 C.ar  103  PHE103     -0.0204
    171  CD1       18.8850   14.0910   -2.0600 C.ar  103  PHE103     -0.0042
    172  CD2       17.0640   15.2240   -1.0840 C.ar  103  PHE103     -0.0042
    173  CE1       18.2420   14.0680   -3.2410 C.ar  103  PHE103     -0.0003
    174  CE2       16.4020   15.2090   -2.3100 C.ar  103  PHE103     -0.0003
    175  CZ        17.0000   14.6220   -3.3910 C.ar  103  PHE103     -0.0000
    176  N         23.7680   11.3170    1.9740 N.3   106  LEU106     -0.1231
    177  CA        24.9710   11.9610    1.3260 C.3   106  LEU106      0.1693
    178  C         25.5750   13.1180    2.1220 C.2   106  LEU106      0.2592
    179  O         26.7760   13.3670    2.0160 O.2   106  LEU106     -0.2718
    180  CB        24.5280   12.5220    0.0230 C.3   106  LEU106      0.0284
    181  CG        25.6710   12.8380   -0.9110 C.3   106  LEU106      0.0019
    182  CD1       26.5980   11.6470   -1.0720 C.3   106  LEU106      0.0001
    183  CD2       25.0760   13.1880   -2.2420 C.3   106  LEU106      0.0001
    184  N         24.7210   13.7460    2.8610 N.am  107  GLY107     -0.1957
    185  CA        24.9960   14.8550    3.6840 C.3   107  GLY107      0.1869
    186  C         26.0230   14.5010    4.7250 C.2   107  GLY107      0.2309
    187  O         27.0250   15.2020    4.8250 O.2   107  GLY107     -0.2863
    188  N         29.2670   13.2640    3.2960 N.3   110  LEU110     -0.1245
    189  CA        30.1470   14.3940    2.9330 C.3   110  LEU110      0.1561
    190  C         30.8680   14.9740    4.1580 C.2   110  LEU110      0.2260
    191  O         32.0240   15.3360    3.9700 O.2   110  LEU110     -0.2867
    192  CB        29.3050   15.4720    2.3180 C.3   110  LEU110      0.0270
    193  CG        30.0670   16.6780    1.7960 C.3   110  LEU110      0.0019
    194  CD1       31.1620   16.3380    0.7880 C.3   110  LEU110      0.0001
    195  CD2       29.0540   17.5690    1.1240 C.3   110  LEU110      0.0001
    196  N         20.7850   22.1540    2.2680 N.3   137  VAL137     -0.1231
    197  CA        20.7300   21.5390    0.9420 C.3   137  VAL137      0.1692
    198  C         19.7950   20.3270    0.8730 C.2   137  VAL137      0.2591
    199  O         18.9680   20.3640   -0.0420 O.2   137  VAL137     -0.2718
    200  CB        22.1030   21.0890    0.6060 C.3   137  VAL137      0.0266
    201  CG1       22.0220   20.3090   -0.6950 C.3   137  VAL137      0.0020
    202  CG2       22.9310   22.3590    0.4330 C.3   137  VAL137      0.0020
    203  N         19.9030   19.3200    1.7660 N.am  138  ALA138     -0.1980
    204  CA        18.9440   18.1910    1.7870 C.3   138  ALA138      0.1597
    205  C         17.4960   18.6990    1.8050 C.2   138  ALA138      0.2287
    206  O         16.7040   18.2620    0.9700 O.2   138  ALA138     -0.2864
    207  CB        19.2180   17.3290    3.0190 C.3   138  ALA138      0.0319
    208  N         16.5640   20.5040   -1.4010 N.3   141  LEU141     -0.1245
    209  CA        16.3380   19.6340   -2.5430 C.3   141  LEU141      0.1561
    210  C         15.1060   18.7440   -2.4170 C.2   141  LEU141      0.2260
    211  O         14.7020   18.2010   -3.4340 O.2   141  LEU141     -0.2867
    212  CB        17.4560   18.7210   -2.6590 C.3   141  LEU141      0.0270
    213  CG        18.6150   19.2430   -3.3810 C.3   141  LEU141      0.0019
    214  CD1       19.5240   18.1220   -3.3980 C.3   141  LEU141      0.0001
    215  CD2       18.3170   19.6090   -4.7860 C.3   141  LEU141      0.0001
@<TRIPOS>BOND
     1    49    48    2
     2    51    50    1
     3    50    47    1
     4    48    47    1
     5    48    52   am
     6    47    46    1
     7    81    80    1
     8    80    79    1
     9    52    53    1
    10    79    78    1
    11    53    54    1
    12    53    56    1
    13    54    55    2
    14   130   129    1
    15    58    60   ar
    16    58    57   ar
    17    60    62   ar
    18    78    77    1
    19   149   147    1
    20    56    57    1
    21    57    59   ar
    22    62    61   ar
    23   131   129    1
    24   129   128    1
    25    69    71   ar
    26    69    68   ar
    27    77    74    1
    28   128   125    1
    29    63    64    1
    30    59    61   ar
    31    71    72   ar
    32   142   143    1
    33   147   148    1
    34   147   146    1
    35    67    64    1
    36    67    68    1
    37    64    65    1
    38   125   126    1
    39   125   124    1
    40    68    70   ar
    41    38    37    1
    42   143   146    1
    43   143   144    1
    44   127   126    2
    45    37    36    1
    46    74    73    1
    47    74    75    1
    48   123   121    1
    49    27    26    2
    50   126   132   am
    51    72    70   ar
    52    36    35    1
    53    36    39    1
    54    65    66    2
    55   144   145    2
    56    75    76    2
    57    75    82   am
    58    26    35   am
    59    26    25    1
    60   116   117    1
    61    41    43   ar
    62    41    40   ar
    63   121   120    1
    64   121   122    1
    65    39    40    1
    66   117   120    1
    67   117   118    1
    68   132   133    1
    69    43    45   ar
    70    82    83    1
    71    40    42   ar
    72    25    28    1
    73    25    24    1
    74   133   134    1
    75   133   136    1
    76   140   138   ar
    77   140   141   ar
    78   118   119    1
    79    89    90    1
    80    28    29    1
    81   138   137   ar
    82   134   135    2
    83    93    90    1
    84   141   139   ar
    85    90    91    1
    86    45    44   ar
    87   137   139   ar
    88   137   136    1
    89     8     6    1
    90    83    86    1
    91    83    84    1
    92    42    44   ar
    93    88    86    1
    94    30    29   ar
    95    30    32   ar
    96   156   154    1
    97    29    31   ar
    98    86    87    1
    99    84    85    2
   100   150   151    1
   101   108   107    1
   102   107   106    1
   103    32    34   ar
   104    91    92    2
   105    91    94   am
   106     6     7    1
   107     6     5    1
   108   154   151    1
   109   154   155    1
   110   106   105    1
   111   106   109    1
   112    31    33   ar
   113   151   152    1
   114    94    95    1
   115     5     2    1
   116   111   113   ar
   117   111   110   ar
   118    34    33   ar
   119    20    19    1
   120   215   213    1
   121   113   115   ar
   122   109   110    1
   123   110   112   ar
   124   152   153    2
   125    95    96    1
   126    95    98    1
   127    19    18    1
   128     3     2    1
   129     3     4    2
   130    96    97    2
   131     2     1    1
   132   115   114   ar
   133    98    99    1
   134   211   210    2
   135   214   213    1
   136   175   173   ar
   137   175   174   ar
   138   213   212    1
   139   173   171   ar
   140   112   114   ar
   141   212   209    1
   142    18    21    1
   143    18    17    1
   144   209   210    1
   145   209   208    1
   146   174   172   ar
   147   183   181    1
   148   171   170   ar
   149    21    22    1
   150    21    23    1
   151    99   101   ar
   152    99   100   ar
   153    16    14    1
   154   164   162   am
   155   101   103   ar
   156   100   102   ar
   157   172   170   ar
   158   182   181    1
   159   170   169    1
   160   162   161    1
   161   162   163    2
   162   161   158    1
   163   181   180    1
   164    14    13    1
   165    14    15    1
   166    13    10    1
   167   201   200    1
   168    11    10    1
   169    11    12    2
   170     9    10    1
   171   199   198    2
   172   103   104   ar
   173   180   177    1
   174   102   104   ar
   175   169   166    1
   176   165   166    1
   177   165   159   am
   178   202   200    1
   179   158   159    1
   180   158   157    1
   181   166   167    1
   182   159   160    2
   183   200   197    1
   184   194   193    1
   185   198   197    1
   186   198   203   am
   187   197   196    1
   188   206   205    2
   189   195   193    1
   190   177   176    1
   191   177   178    1
   192   203   204    1
   193   204   205    1
   194   204   207    1
   195   193   192    1
   196   167   168    1
   197   179   178    2
   198   178   184   am
   199   192   189    1
   200   184   185    1
   201   189   188    1
   202   189   190    1
   203   185   186    1
   204   191   190    2
   205   186   187    2
