@<TRIPOS>MOLECULE
tmp/1nipB00.pdb
 81 76 0 0 0
SMALL
GASTEIGER

@<TRIPOS>ATOM
      1  N         16.5780  -10.6150   14.3030 N.3    10  LYS10      -0.1231
      2  CA        15.2570  -11.1330   14.2430 C.3    10  LYS10       0.1693
      3  C         14.8930  -11.6050   15.6260 C.2    10  LYS10       0.2592
      4  O         15.6840  -11.5760   16.5700 O.2    10  LYS10      -0.2718
      5  CB        15.1900  -12.2820   13.2690 C.3    10  LYS10       0.0285
      6  CG        14.8490  -13.6120   13.9130 C.3    10  LYS10       0.0035
      7  CD        14.9420  -14.7660   12.9210 C.3    10  LYS10       0.0206
      8  CE        13.9320  -15.8710   13.1670 C.3    10  LYS10       0.1093
      9  NZ        14.5130  -16.9880   13.9230 N.3    10  LYS10      -0.1314
     10  N         13.6720  -12.0120   15.7780 N.am   11  GLY11      -0.1957
     11  CA        13.2820  -12.5090   17.0660 C.3    11  GLY11       0.1869
     12  C         13.3060  -14.0120   17.0810 C.2    11  GLY11       0.2309
     13  O         13.4460  -14.6480   16.0350 O.2    11  GLY11      -0.2863
     14  N          7.4180   -7.2000   20.3350 N.3    41  LYS41      -0.1245
     15  CA         7.4020   -8.6360   20.5160 C.3    41  LYS41       0.1561
     16  C          7.9150   -9.0720   21.8510 C.2    41  LYS41       0.2260
     17  O          7.3010   -9.9050   22.5160 O.2    41  LYS41      -0.2867
     18  CB         8.2340   -9.3650   19.4690 C.3    41  LYS41       0.0271
     19  CG         7.7770   -9.1690   18.0390 C.3    41  LYS41       0.0035
     20  CD         8.5800  -10.0350   17.0880 C.3    41  LYS41       0.0206
     21  CE         7.9830  -10.1360   15.6950 C.3    41  LYS41       0.1093
     22  NZ         8.6220  -11.1750   14.8810 N.3    41  LYS41      -0.1314
     23  N         14.9840   -6.9250   14.1460 N.3   128  GLY128     -0.1210
     24  CA        15.5520   -7.0850   12.8300 C.3   128  GLY128      0.1956
     25  C         14.5330   -7.8000   11.9400 C.2   128  GLY128      0.2612
     26  O         14.8170   -8.1320   10.7880 O.2   128  GLY128     -0.2717
     27  N         13.3540   -8.1040   12.5000 N.am  129  ASP129     -0.1959
     28  CA        12.3790   -8.8910   11.7570 C.3   129  ASP129      0.1840
     29  C         12.1310   -8.4200   10.3430 C.2   129  ASP129      0.2622
     30  O         12.2060   -9.1990    9.3830 O.2   129  ASP129     -0.2715
     31  CB        11.0790   -9.1480   12.5140 C.3   129  ASP129      0.1450
     32  CG        10.8240  -10.6200   12.6720 C.2   129  ASP129      0.3671
     33  OD1       11.7780  -11.2190   13.3480 O.co2 129  ASP129     -0.2456
     34  OD2        9.8230  -11.1820   12.2640 O.co2 129  ASP129     -0.2456
     35  N         11.8560   -7.1280   10.2090 N.am  130  VAL130     -0.1963
     36  CA        11.7640   -6.4950    8.9020 C.3   130  VAL130      0.1727
     37  C         12.3020   -5.0630    8.9170 C.2   130  VAL130      0.2616
     38  O         11.9610   -4.2360    9.7670 O.2   130  VAL130     -0.2715
     39  CB        10.4370   -6.6590    8.1560 C.3   130  VAL130      0.0290
     40  CG1        9.4950   -5.4930    8.4490 C.3   130  VAL130      0.0023
     41  CG2       10.6660   -6.8290    6.6530 C.3   130  VAL130      0.0023
     42  N         13.2740   -4.8430    8.0440 N.am  131  VAL131     -0.1977
     43  CA        14.0060   -3.6090    7.9960 C.3   131  VAL131      0.1596
     44  C         13.2060   -2.5730    7.2580 C.2   131  VAL131      0.2287
     45  O         13.2890   -2.4560    6.0490 O.2   131  VAL131     -0.2864
     46  CB        15.3360   -3.8250    7.2830 C.3   131  VAL131      0.0276
     47  CG1       16.2560   -2.6310    7.5040 C.3   131  VAL131      0.0022
     48  CG2       16.0120   -5.1280    7.7340 C.3   131  VAL131      0.0022
     49  N         17.3590  -17.3260    8.5270 N.3   156  MET156     -0.1245
     50  CA        16.6750  -16.0600    8.6270 C.3   156  MET156      0.1570
     51  C         17.6320  -15.1040    9.2430 C.2   156  MET156      0.2261
     52  O         18.2070  -14.3150    8.5020 O.2   156  MET156     -0.2867
     53  CB        15.2850  -16.0620    9.3030 C.3   156  MET156      0.0387
     54  CG        14.1780  -16.6490    8.4390 C.3   156  MET156      0.0595
     55  SD        14.3020  -16.1620    6.7000 S.3   156  MET156     -0.1393
     56  CE        13.5080  -17.6010    5.9530 C.3   156  MET156      0.0692
     57  N         19.7850  -13.7920    7.0920 N.3   159  TYR159     -0.1227
     58  CA        19.0520  -12.9480    6.1980 C.3   159  TYR159      0.1736
     59  C         18.7510  -11.5760    6.7910 C.2   159  TYR159      0.2595
     60  O         18.9660  -10.5350    6.1560 O.2   159  TYR159     -0.2718
     61  CB        17.8150  -13.7050    5.6860 C.3   159  TYR159      0.0548
     62  CG        17.2680  -13.0920    4.4430 C.ar  159  TYR159     -0.0200
     63  CD1       17.9330  -13.1760    3.2190 C.ar  159  TYR159     -0.0009
     64  CD2       16.0980  -12.3430    4.5200 C.ar  159  TYR159     -0.0009
     65  CE1       17.4320  -12.5290    2.0880 C.ar  159  TYR159      0.0417
     66  CE2       15.5940  -11.6740    3.4050 C.ar  159  TYR159      0.0417
     67  CZ        16.2770  -11.7520    2.1920 C.ar  159  TYR159      0.1957
     68  OH        15.7990  -11.0790    1.0980 O.3   159  TYR159     -0.2866
     69  N         18.3440  -11.5810    8.0470 N.am  160  ALA160     -0.1980
     70  CA        18.0020  -10.3400    8.6870 C.3   160  ALA160      0.1597
     71  C         19.1530   -9.3930    8.5730 C.2   160  ALA160      0.2287
     72  O         19.0890   -8.3670    7.8610 O.2   160  ALA160     -0.2864
     73  CB        17.7710  -10.5830   10.1700 C.3   160  ALA160      0.0319
     74  N         19.7860   -7.5470    5.6910 N.3   163  ASN163     -0.1240
     75  CA        18.9410   -6.4160    5.4360 C.3   163  ASN163      0.1653
     76  C         19.2320   -5.3110    6.4100 C.2   163  ASN163      0.2266
     77  O         19.6390   -4.1980    6.0230 O.2   163  ASN163     -0.2867
     78  CB        17.4650   -6.7780    5.4160 C.3   163  ASN163      0.1155
     79  CG        17.1430   -7.8190    4.3570 C.2   163  ASN163      0.2627
     80  OD1       17.1510   -7.5720    3.1280 O.2   163  ASN163     -0.2716
     81  ND2       16.9190   -9.0170    4.8450 N.am  163  ASN163     -0.0877
@<TRIPOS>BOND
     1    68    67    1
     2    65    67   ar
     3    65    63   ar
     4    67    66   ar
     5    80    79    2
     6    63    62   ar
     7    66    64   ar
     8    79    81   am
     9    79    78    1
    10    62    64   ar
    11    62    61    1
    12    78    75    1
    13    75    74    1
    14    75    76    1
    15    61    58    1
    16    56    55    1
    17    77    76    2
    18    45    44    2
    19    60    59    2
    20    58    59    1
    21    58    57    1
    22    41    39    1
    23    55    54    1
    24    59    69   am
    25    44    43    1
    26    46    47    1
    27    46    48    1
    28    46    43    1
    29    72    71    2
    30    43    42    1
    31    42    37   am
    32    69    70    1
    33    39    40    1
    34    39    36    1
    35    54    53    1
    36    52    51    2
    37    49    50    1
    38    71    70    1
    39    50    51    1
    40    50    53    1
    41    70    73    1
    42    36    37    1
    43    36    35    1
    44    37    38    2
    45    30    29    2
    46    35    29   am
    47    29    28    1
    48    26    25    2
    49    28    27    1
    50    28    31    1
    51    25    27   am
    52    25    24    1
    53    34    32   ar
    54    31    32    1
    55    32    33   ar
    56    24    23    1
    57     7     8    1
    58     7     6    1
    59     8     9    1
    60     5     6    1
    61     5     2    1
    62     2     1    1
    63     2     3    1
    64    22    21    1
    65     3    10   am
    66     3     4    2
    67    21    20    1
    68    10    11    1
    69    13    12    2
    70    11    12    1
    71    20    19    1
    72    19    18    1
    73    18    15    1
    74    14    15    1
    75    15    16    1
    76    16    17    2
