@<TRIPOS>MOLECULE
tmp/1nipA00.pdb
 89 86 0 0 0
SMALL
GASTEIGER

@<TRIPOS>ATOM
      1  N          2.1690  -15.1300   11.2390 N.3    10  LYS10      -0.1231
      2  CA         3.5430  -15.1440   11.6310 C.3    10  LYS10       0.1693
      3  C          4.4270  -15.8410   10.6250 C.2    10  LYS10       0.2593
      4  O          4.0410  -16.8500   10.0490 O.2    10  LYS10      -0.2718
      5  CB         3.6030  -15.9210   12.9230 C.3    10  LYS10       0.0285
      6  CG         4.9720  -16.4860   13.2220 C.3    10  LYS10       0.0035
      7  CD         5.2050  -16.5070   14.7150 C.3    10  LYS10       0.0206
      8  CE         6.4740  -17.2170   15.0880 C.3    10  LYS10       0.1093
      9  NZ         6.5150  -17.5090   16.5180 N.3    10  LYS10      -0.1314
     10  N          5.6600  -15.3840   10.4650 N.am   11  GLY11      -0.1942
     11  CA         6.5280  -16.1090    9.5760 C.3    11  GLY11       0.2014
     12  C          7.0990  -17.3410   10.2750 C.2    11  GLY11       0.2639
     13  O          7.4480  -17.3070   11.4790 O.2    11  GLY11      -0.2714
     14  N          7.2910  -18.3720    9.4650 N.am   12  GLY12      -0.1939
     15  CA         8.0280  -19.5620    9.7950 C.3    12  GLY12       0.2014
     16  C          7.1140  -20.7290   10.1280 C.2    12  GLY12       0.2639
     17  O          7.5320  -21.7050   10.7660 O.2    12  GLY12      -0.2714
     18  N          5.8480  -20.6500    9.7030 N.am   13  ILE13      -0.1963
     19  CA         5.0040  -21.7790    9.9640 C.3    13  ILE13       0.1727
     20  C          4.6640  -22.5630    8.7510 C.2    13  ILE13       0.2617
     21  O          3.9920  -23.5780    8.8680 O.2    13  ILE13      -0.2715
     22  CB         3.7220  -21.4590   10.6530 C.3    13  ILE13       0.0290
     23  CG1        3.9170  -20.2840   11.5950 C.3    13  ILE13       0.0022
     24  CG2        3.3690  -22.7160   11.4350 C.3    13  ILE13       0.0023
     25  CD1        2.7480  -19.3070   11.5540 C.3    13  ILE13       0.0001
     26  N          4.9460  -22.0250    7.5860 N.am   14  GLY14      -0.1940
     27  CA         4.5700  -22.7940    6.4180 C.3    14  GLY14       0.2014
     28  C          3.4130  -22.1710    5.6820 C.2    14  GLY14       0.2639
     29  O          3.1090  -22.5530    4.5480 O.2    14  GLY14      -0.2714
     30  N          2.9450  -21.0980    6.2830 N.am   15  LYS15      -0.1963
     31  CA         1.9690  -20.2590    5.6790 C.3    15  LYS15       0.1728
     32  C          2.1020  -20.2630    4.1600 C.2    15  LYS15       0.2616
     33  O          1.3730  -20.9050    3.4030 O.2    15  LYS15      -0.2715
     34  CB         2.2630  -18.8600    6.1470 C.3    15  LYS15       0.0311
     35  CG         1.1310  -17.9270    5.8100 C.3    15  LYS15       0.0038
     36  CD         1.5890  -16.4940    5.6300 C.3    15  LYS15       0.0206
     37  CE         1.3990  -16.0480    4.2040 C.3    15  LYS15       0.1093
     38  NZ         1.7330  -17.1070    3.2340 N.3    15  LYS15      -0.1314
     39  N          3.1790  -19.7270    3.7320 N.am   16  SER16      -0.1950
     40  CA         3.4280  -19.6380    2.3310 C.3    16  SER16       0.1924
     41  C          3.2050  -20.9620    1.6180 C.2    16  SER16       0.2314
     42  O          2.7840  -21.0370    0.4560 O.2    16  SER16      -0.2863
     43  CB         4.8180  -19.0760    2.0770 C.3    16  SER16       0.2116
     44  OG         5.7430  -19.5780    3.0490 O.3    16  SER16      -0.2180
     45  N          4.4690  -10.8290    1.1760 N.3    39  ASP39      -0.1225
     46  CA         5.4150  -11.1950    2.2030 C.3    39  ASP39       0.1790
     47  C          6.8320  -11.0600    1.6890 C.2    39  ASP39       0.2440
     48  O          7.1610  -11.5690    0.6070 O.2    39  ASP39      -0.2733
     49  CB         5.2040  -12.6190    2.7000 C.3    39  ASP39       0.1423
     50  CG         5.6900  -12.7180    4.1020 C.2    39  ASP39       0.3668
     51  OD1        6.5260  -11.9590    4.5360 O.co2  39  ASP39      -0.2456
     52  OD2        5.0010  -13.5630    4.8440 O.co2  39  ASP39      -0.2456
     53  N          7.6520  -10.3720    2.4910 N.am   40  PRO40      -0.2718
     54  CA         9.0560  -10.1050    2.1890 C.3    40  PRO40       0.1535
     55  C          9.8920  -11.3220    2.5350 C.2    40  PRO40       0.2598
     56  O         10.8320  -11.6910    1.8270 O.2    40  PRO40      -0.2715
     57  CB         9.4640   -8.9830    3.1470 C.3    40  PRO40       0.0310
     58  CG         8.3650   -8.8720    4.2090 C.3    40  PRO40       0.0237
     59  CD         7.1430   -9.5560    3.6320 C.3    40  PRO40       0.0939
     60  N          9.4590  -11.9670    3.6180 N.am   41  LYS41      -0.1964
     61  CA        10.1360  -13.1010    4.1950 C.3    41  LYS41       0.1728
     62  C         10.1040  -14.3600    3.3510 C.2    41  LYS41       0.2616
     63  O         11.1430  -14.9900    3.1650 O.2    41  LYS41      -0.2715
     64  CB         9.6050  -13.4060    5.5780 C.3    41  LYS41       0.0311
     65  CG         9.8010  -12.2860    6.5810 C.3    41  LYS41       0.0038
     66  CD        10.1330  -12.8380    7.9480 C.3    41  LYS41       0.0206
     67  CE         9.5240  -12.0440    9.0860 C.3    41  LYS41       0.1093
     68  NZ         8.9320  -12.8800   10.1510 N.3    41  LYS41      -0.1314
     69  N          8.8980  -14.7710    2.9480 N.am   42  ALA42      -0.1977
     70  CA         8.6160  -16.0790    2.3440 C.3    42  ALA42       0.1597
     71  C          8.6110  -16.2080    0.8160 C.2    42  ALA42       0.2287
     72  O          8.6960  -15.2410    0.0690 O.2    42  ALA42      -0.2864
     73  CB         7.2600  -16.5660    2.8270 C.3    42  ALA42       0.0319
     74  N          1.8400  -10.8930    6.0160 N.3   127  LEU127     -0.1245
     75  CA         2.6750  -11.2900    7.1120 C.3   127  LEU127      0.1561
     76  C          2.3510  -10.5570    8.3930 C.2   127  LEU127      0.2260
     77  O          2.6470   -9.3740    8.5720 O.2   127  LEU127     -0.2867
     78  CB         4.1580  -11.1910    6.7860 C.3   127  LEU127      0.0270
     79  CG         4.9820  -11.7300    7.9330 C.3   127  LEU127      0.0019
     80  CD1        4.9110  -13.2590    7.9480 C.3   127  LEU127      0.0001
     81  CD2        6.4200  -11.2190    7.8270 C.3   127  LEU127      0.0001
     82  N          3.6370  -10.9780   11.1170 N.3   129  ASP129     -0.1239
     83  CA         4.7080  -11.0910   12.0770 C.3   129  ASP129      0.1674
     84  C          4.7120   -9.8830   12.9680 C.2   129  ASP129      0.2266
     85  O          4.5860  -10.0260   14.1830 O.2   129  ASP129     -0.2867
     86  CB         6.0750  -11.4000   11.4640 C.3   129  ASP129      0.1410
     87  CG         6.6460  -12.6450   12.0770 C.2   129  ASP129      0.3668
     88  OD1        6.4650  -12.6900   13.3750 O.co2 129  ASP129     -0.2456
     89  OD2        7.1030  -13.5770   11.4310 O.co2 129  ASP129     -0.2456
@<TRIPOS>BOND
     1    72    71    2
     2    42    41    2
     3    48    47    2
     4    71    70    1
     5    45    46    1
     6    41    40    1
     7    47    46    1
     8    47    53   am
     9    56    55    2
    10    43    40    1
    11    43    44    1
    12    54    53    1
    13    54    55    1
    14    54    57    1
    15    46    49    1
    16    40    39    1
    17    70    73    1
    18    70    69    1
    19    53    59    1
    20    55    60   am
    21    49    50    1
    22    69    62   am
    23    57    58    1
    24    63    62    2
    25    38    37    1
    26    62    61    1
    27    33    32    2
    28    60    61    1
    29    59    58    1
    30    39    32   am
    31    50    51   ar
    32    50    52   ar
    33    32    31    1
    34    61    64    1
    35    37    36    1
    36    29    28    2
    37    64    65    1
    38    36    35    1
    39    31    34    1
    40    31    30    1
    41    28    30   am
    42    28    27    1
    43    35    34    1
    44    74    75    1
    45    27    26    1
    46    65    66    1
    47    78    75    1
    48    78    79    1
    49    75    76    1
    50    26    20   am
    51    81    79    1
    52    79    80    1
    53    66    67    1
    54    76    77    2
    55    20    21    2
    56    20    19    1
    57    67    68    1
    58    14    15    1
    59    14    12   am
    60    11    12    1
    61    11    10    1
    62    18    19    1
    63    18    16   am
    64    15    16    1
    65    19    22    1
    66     4     3    2
    67    16    17    2
    68    12    13    2
    69    10     3   am
    70     3     2    1
    71    22    24    1
    72    22    23    1
    73    82    83    1
    74     1     2    1
    75    89    87   ar
    76    86    83    1
    77    86    87    1
    78    25    23    1
    79     2     5    1
    80    83    84    1
    81    87    88   ar
    82     5     6    1
    83    84    85    2
    84     6     7    1
    85     7     8    1
    86     8     9    1
