@<TRIPOS>MOLECULE
tmp/1niqB00.pdb
 103 101 0 0 0
SMALL
GASTEIGER

@<TRIPOS>ATOM
      1  N         17.1080   19.3700   33.8570 N.3     7  ASN7       -0.1240
      2  CA        16.4920   19.0080   35.1690 C.3     7  ASN7        0.1653
      3  C         16.2510   17.4620   35.2760 C.2     7  ASN7        0.2266
      4  O         15.5420   16.8560   34.4650 O.2     7  ASN7       -0.2867
      5  CB        15.1700   19.7850   35.3870 C.3     7  ASN7        0.1155
      6  CG        15.1220   21.3180   35.3920 C.2     7  ASN7        0.2627
      7  OD1       14.0430   21.8880   35.2940 O.2     7  ASN7       -0.2716
      8  ND2       16.2020   22.0420   35.5260 N.am    7  ASN7       -0.0877
      9  N         25.0130   23.9740   45.3450 N.3    29  PHE29      -0.1227
     10  CA        23.7750   24.2700   46.1130 C.3    29  PHE29       0.1736
     11  C         23.1380   22.9090   46.5820 C.2    29  PHE29       0.2595
     12  O         23.0580   21.9370   45.8200 O.2    29  PHE29      -0.2718
     13  CB        22.8760   25.1700   45.2010 C.3    29  PHE29       0.0547
     14  CG        21.3680   25.2000   45.5030 C.ar   29  PHE29      -0.0202
     15  CD1       20.5880   24.1350   45.0430 C.ar   29  PHE29      -0.0042
     16  CD2       20.7680   26.2100   46.2630 C.ar   29  PHE29      -0.0042
     17  CE1       19.2430   24.0610   45.3650 C.ar   29  PHE29      -0.0003
     18  CE2       19.4040   26.1460   46.5580 C.ar   29  PHE29      -0.0003
     19  CZ        18.6450   25.0700   46.1070 C.ar   29  PHE29      -0.0000
     20  N         22.6200   22.8750   47.8210 N.am   30  ARG30      -0.1966
     21  CA        21.8050   21.7360   48.3350 C.3    30  ARG30       0.1729
     22  C         20.8130   22.2260   49.4430 C.2    30  ARG30       0.2616
     23  O         21.2430   22.8050   50.4470 O.2    30  ARG30      -0.2715
     24  CB        22.7800   20.6360   48.8420 C.3    30  ARG30       0.0348
     25  CG        22.1200   19.3200   49.3130 C.3    30  ARG30       0.0492
     26  CD        23.1660   18.2300   49.5860 C.3    30  ARG30       0.2205
     27  NE        22.4900   17.0880   50.2460 N.pl3  30  ARG30      -0.0865
     28  CZ        23.1000   15.9970   50.6960 C.cat  30  ARG30       0.5346
     29  NH1       24.3680   15.7520   50.5590 N.pl3  30  ARG30       0.1354
     30  NH2       22.3860   15.1270   51.3130 N.pl3  30  ARG30       0.1354
     31  N         19.5080   21.9490   49.2780 N.am   31  ASP31      -0.1971
     32  CA        18.4810   22.1920   50.3310 C.3    31  ASP31       0.1709
     33  C         17.7790   20.8570   50.7830 C.2    31  ASP31       0.2293
     34  O         18.2040   20.1930   51.7340 O.2    31  ASP31      -0.2864
     35  CB        17.5870   23.4090   49.9160 C.3    31  ASP31       0.1436
     36  CG        16.6830   23.3750   48.6700 C.2    31  ASP31       0.3671
     37  OD1       16.4700   22.3060   48.0540 O.co2  31  ASP31      -0.2456
     38  OD2       16.1340   24.4410   48.3330 O.co2  31  ASP31      -0.2456
     39  N         15.8220   20.3990   45.8140 N.3    34  TRP34      -0.1241
     40  CA        16.6970   20.6250   44.6290 C.3    34  TRP34       0.1605
     41  C         18.2270   20.4850   44.9890 C.2    34  TRP34       0.2264
     42  O         18.6700   20.8040   46.0990 O.2    34  TRP34      -0.2867
     43  CB        16.2640   22.0150   44.0730 C.3    34  TRP34       0.0550
     44  CG        16.6090   22.2920   42.6050 C.ar   34  TRP34       0.0003
     45  CD1       17.7460   22.9670   42.1110 C.ar   34  TRP34       0.0946
     46  CD2       15.7980   22.0850   41.4970 C.ar   34  TRP34       0.0152
     47  NE1       17.6660   23.1700   40.7200 N.ar   34  TRP34      -0.2442
     48  CE2       16.4490   22.6320   40.3620 C.ar   34  TRP34       0.0810
     49  CE3       14.4980   21.5380   41.3790 C.ar   34  TRP34       0.0012
     50  CZ2       15.8040   22.6460   39.1070 C.ar   34  TRP34       0.0191
     51  CZ3       13.8910   21.5440   40.1220 C.ar   34  TRP34       0.0001
     52  CH2       14.5290   22.0930   39.0040 C.ar   34  TRP34       0.0015
     53  N         22.1260   21.0710   42.9360 N.3    36  ILE36      -0.1245
     54  CA        22.8930   21.4640   41.7080 C.3    36  ILE36       0.1561
     55  C         24.3430   20.8680   41.7980 C.2    36  ILE36       0.2260
     56  O         25.1370   21.2190   42.6800 O.2    36  ILE36      -0.2867
     57  CB        22.8530   23.0140   41.4490 C.3    36  ILE36       0.0252
     58  CG1       21.4080   23.5970   41.3790 C.3    36  ILE36       0.0019
     59  CG2       23.5930   23.3840   40.1330 C.3    36  ILE36       0.0019
     60  CD1       21.2940   25.1310   41.4040 C.3    36  ILE36       0.0001
     61  N         26.7030   22.4230   34.3770 N.3    43  MET43      -0.1245
     62  CA        25.6230   22.4210   35.4070 C.3    43  MET43       0.1570
     63  C         24.5870   21.2540   35.2140 C.2    43  MET43       0.2261
     64  O         23.9410   21.1490   34.1670 O.2    43  MET43      -0.2867
     65  CB        24.9600   23.8290   35.3820 C.3    43  MET43       0.0387
     66  CG        24.0330   24.1170   36.5830 C.3    43  MET43       0.0595
     67  SD        23.1870   25.7040   36.3990 S.3    43  MET43      -0.1393
     68  CE        24.3680   26.8090   37.1850 C.3    43  MET43       0.0692
     69  N         21.1150   19.8540   37.2070 N.3    45  GLU45      -0.1245
     70  CA        20.1230   20.1780   38.2710 C.3    45  GLU45       0.1567
     71  C         19.2860   18.9250   38.6830 C.2    45  GLU45       0.2260
     72  O         18.3560   18.5120   37.9840 O.2    45  GLU45      -0.2867
     73  CB        19.2190   21.3330   37.7760 C.3    45  GLU45       0.0388
     74  CG        19.9130   22.7010   37.5440 C.3    45  GLU45       0.1160
     75  CD        18.9540   23.8660   37.5480 C.2    45  GLU45       0.3649
     76  OE1       18.2750   24.0940   36.5330 O.co2  45  GLU45      -0.2457
     77  OE2       18.8550   24.5500   38.5800 O.co2  45  GLU45      -0.2457
     78  N         16.5630   17.1770   40.9170 N.3    47  PHE47      -0.1227
     79  CA        15.3840   17.3370   41.8120 C.3    47  PHE47       0.1736
     80  C         15.0080   16.0350   42.5980 C.2    47  PHE47       0.2595
     81  O         15.1660   14.9170   42.0990 O.2    47  PHE47      -0.2718
     82  CB        14.2160   17.9580   40.9900 C.3    47  PHE47       0.0547
     83  CG        13.4870   17.1030   39.9340 C.ar   47  PHE47      -0.0202
     84  CD1       12.4060   16.2970   40.3050 C.ar   47  PHE47      -0.0042
     85  CD2       13.8660   17.1630   38.5880 C.ar   47  PHE47      -0.0042
     86  CE1       11.7220   15.5540   39.3470 C.ar   47  PHE47      -0.0003
     87  CE2       13.1830   16.4160   37.6300 C.ar   47  PHE47      -0.0003
     88  CZ        12.1090   15.6150   38.0110 C.ar   47  PHE47      -0.0000
     89  N         14.4700   16.1880   43.8210 N.am   48  ALA48      -0.1966
     90  CA        14.0760   15.0400   44.6810 C.3    48  ALA48       0.1728
     91  C         12.8700   14.2040   44.1280 C.2    48  ALA48       0.2616
     92  O         11.7100   14.6250   44.2040 O.2    48  ALA48      -0.2715
     93  CB        13.7940   15.6410   46.0730 C.3    48  ALA48       0.0334
     94  N         13.1570   13.0220   43.5630 N.am   49  HIS49      -0.1973
     95  CA        12.1300   12.1370   42.9500 C.3    49  HIS49       0.1656
     96  C         12.2380   10.6620   43.4990 C.2    49  HIS49       0.2291
     97  O         12.6380    9.7710   42.7430 O.2    49  HIS49      -0.2864
     98  CB        12.2690   12.2960   41.4030 C.3    49  HIS49       0.0771
     99  CG        11.1310   11.7640   40.5220 C.ar   49  HIS49       0.0820
    100  ND1        9.9500   11.1840   40.9730 N.ar   49  HIS49      -0.2267
    101  CD2       11.1350   11.8290   39.1170 C.ar   49  HIS49       0.1154
    102  CE1        9.3520   10.9170   39.7690 C.ar   49  HIS49       0.1986
    103  NE2        9.9770   11.2700   38.6050 N.ar   49  HIS49      -0.2212
@<TRIPOS>BOND
     1     1     2    1
     2    64    63    2
     3    61    62    1
     4     4     3    2
     5     2     3    1
     6     2     5    1
     7    63    62    1
     8     7     6    2
     9    65    62    1
    10    65    66    1
    11     5     6    1
    12     6     8   am
    13    67    66    1
    14    67    68    1
    15    76    75   ar
    16    69    70    1
    17    74    75    1
    18    74    73    1
    19    75    77   ar
    20    87    88   ar
    21    87    85   ar
    22    73    70    1
    23    72    71    2
    24    88    86   ar
    25    70    71    1
    26    85    83   ar
    27   103   101   ar
    28   103   102   ar
    29    52    50   ar
    30    52    51   ar
    31    50    48   ar
    32   101    99   ar
    33    86    84   ar
    34   102   100   ar
    35    83    84   ar
    36    83    82    1
    37    51    49   ar
    38    59    57    1
    39    48    47   ar
    40    48    46   ar
    41    99   100   ar
    42    99    98    1
    43    47    45   ar
    44    78    79    1
    45    82    79    1
    46    49    46   ar
    47    58    60    1
    48    58    57    1
    49    98    95    1
    50    57    54    1
    51    46    44   ar
    52    54    55    1
    53    54    53    1
    54    55    56    2
    55    79    80    1
    56    81    80    2
    57    45    44   ar
    58    80    89   am
    59    44    43    1
    60    97    96    2
    61    95    96    1
    62    95    94    1
    63    94    91   am
    64    89    90    1
    65    43    40    1
    66    91    92    2
    67    91    90    1
    68    40    41    1
    69    40    39    1
    70    90    93    1
    71    41    42    2
    72    15    17   ar
    73    15    14   ar
    74    13    14    1
    75    13    10    1
    76     9    10    1
    77    17    19   ar
    78    14    16   ar
    79    12    11    2
    80    19    18   ar
    81    10    11    1
    82    16    18   ar
    83    11    20   am
    84    20    21    1
    85    37    36   ar
    86    38    36   ar
    87    21    24    1
    88    21    22    1
    89    36    35    1
    90    24    25    1
    91    31    22   am
    92    31    32    1
    93    25    26    1
    94    22    23    2
    95    26    27    1
    96    35    32    1
    97    27    28    2
    98    32    33    1
    99    29    28    1
   100    28    30    1
   101    33    34    2
