@<TRIPOS>MOLECULE
tmp/1niqB01.pdb
 203 198 0 0 0
SMALL
GASTEIGER

@<TRIPOS>ATOM
      1  N         13.8210    3.1870   37.5320 N.3    54  PRO54      -0.2102
      2  CA        14.9580    3.3410   36.5690 C.3    54  PRO54       0.1504
      3  C         14.8330    2.7780   35.1100 C.2    54  PRO54       0.2576
      4  O         15.4950    3.2860   34.2010 O.2    54  PRO54      -0.2718
      5  CB        16.1260    2.6930   37.3400 C.3    54  PRO54       0.0282
      6  CG        15.7480    2.8310   38.8130 C.3    54  PRO54       0.0208
      7  CD        14.2360    2.6350   38.8340 C.3    54  PRO54       0.0893
      8  N         13.9990    1.7470   34.8890 N.am   55  LEU55      -0.1966
      9  CA        13.6080    1.2800   33.5250 C.3    55  LEU55       0.1728
     10  C         12.6670    2.2680   32.7410 C.2    55  LEU55       0.2616
     11  O         12.9550    2.5810   31.5820 O.2    55  LEU55      -0.2715
     12  CB        13.0000   -0.1500   33.6450 C.3    55  LEU55       0.0311
     13  CG        13.9240   -1.2950   34.1460 C.3    55  LEU55       0.0022
     14  CD1       13.0870   -2.5410   34.4750 C.3    55  LEU55       0.0001
     15  CD2       15.0100   -1.6670   33.1230 C.3    55  LEU55       0.0001
     16  N         11.5860    2.7890   33.3530 N.am   56  ALA56      -0.1963
     17  CA        10.7690    3.8950   32.7720 C.3    56  ALA56       0.1728
     18  C         11.3100    5.3790   32.8680 C.2    56  ALA56       0.2617
     19  O         10.5700    6.3230   32.5640 O.2    56  ALA56      -0.2715
     20  CB         9.4000    3.7340   33.4640 C.3    56  ALA56       0.0334
     21  N         12.5840    5.6090   33.2330 N.am   57  SER57      -0.1936
     22  CA        13.1560    6.9700   33.4350 C.3    57  SER57       0.2055
     23  C         13.5450    7.7110   32.1060 C.2    57  SER57       0.2643
     24  O         14.6890    7.6680   31.6400 O.2    57  SER57      -0.2714
     25  CB        14.3370    6.7950   34.4200 C.3    57  SER57       0.2130
     26  OG        14.9560    8.0490   34.7190 O.3    57  SER57      -0.2179
     27  N         12.5880    8.4520   31.5180 N.am   58  TRP58      -0.1959
     28  CA        12.8190    9.2610   30.2790 C.3    58  TRP58       0.1771
     29  C         13.5230   10.6440   30.5410 C.2    58  TRP58       0.2620
     30  O         12.9480   11.7190   30.3500 O.2    58  TRP58      -0.2715
     31  CB        11.4500    9.3990   29.5460 C.3    58  TRP58       0.0590
     32  CG        11.0760    8.2280   28.6290 C.ar   58  TRP58       0.0006
     33  CD1       10.3770    7.0610   29.0030 C.ar   58  TRP58       0.0946
     34  CD2       11.2560    8.1320   27.2580 C.ar   58  TRP58       0.0152
     35  NE1       10.1130    6.2330   27.8920 N.ar   58  TRP58      -0.2442
     36  CE2       10.6540    6.9260   26.8220 C.ar   58  TRP58       0.0810
     37  CE3       11.8510    9.0190   26.3220 C.ar   58  TRP58       0.0012
     38  CZ2       10.6160    6.6100   25.4440 C.ar   58  TRP58       0.0191
     39  CZ3       11.8090    8.6800   24.9690 C.ar   58  TRP58       0.0001
     40  CH2       11.1950    7.4990   24.5350 C.ar   58  TRP58       0.0015
     41  N         14.8000   10.6000   30.9490 N.am   59  PHE59      -0.1960
     42  CA        15.5810   11.8120   31.3220 C.3    59  PHE59       0.1771
     43  C         16.9970   11.7180   30.6720 C.2    59  PHE59       0.2620
     44  O         17.9030   11.1040   31.2480 O.2    59  PHE59      -0.2715
     45  CB        15.6670   11.9300   32.8760 C.3    59  PHE59       0.0574
     46  CG        14.3770   12.3250   33.6150 C.ar   59  PHE59      -0.0200
     47  CD1       14.0320   13.6720   33.7700 C.ar   59  PHE59      -0.0042
     48  CD2       13.5700   11.3400   34.1950 C.ar   59  PHE59      -0.0042
     49  CE1       12.8940   14.0270   34.4920 C.ar   59  PHE59      -0.0003
     50  CE2       12.4360   11.6960   34.9210 C.ar   59  PHE59      -0.0003
     51  CZ        12.0990   13.0380   35.0680 C.ar   59  PHE59      -0.0000
     52  N         17.2040   12.3230   29.4900 N.am   60  SER60      -0.1950
     53  CA        18.5520   12.4110   28.8530 C.3    60  SER60       0.1924
     54  C         19.1320   13.8660   28.8300 C.2    60  SER60       0.2314
     55  O         18.4000   14.8630   28.8160 O.2    60  SER60      -0.2863
     56  CB        18.5130   11.7100   27.4700 C.3    60  SER60       0.2116
     57  OG        17.9360   12.5040   26.4350 O.3    60  SER60      -0.2180
     58  N         23.0190   15.8780   27.1140 N.3    62  CYS62      -0.1235
     59  CA        24.3700   15.7250   26.5110 C.3    62  CYS62       0.1677
     60  C         25.4850   16.5100   27.2770 C.2    62  CYS62       0.2270
     61  O         25.3450   17.7030   27.5580 O.2    62  CYS62      -0.2867
     62  CB        24.3360   16.1070   25.0180 C.3    62  CYS62       0.0956
     63  SG        23.0190   15.2290   24.1090 S.3    62  CYS62      -0.0801
     64  N         28.7810   18.1230   26.2960 N.3    64  ARG64      -0.1245
     65  CA        29.4880   18.5270   25.0470 C.3    64  ARG64       0.1563
     66  C         31.0000   18.8520   25.2740 C.2    64  ARG64       0.2260
     67  O         31.3920   20.0040   25.4750 O.2    64  ARG64      -0.2867
     68  CB        28.7060   19.7100   24.4150 C.3    64  ARG64       0.0307
     69  CG        27.4380   19.2920   23.6430 C.3    64  ARG64       0.0489
     70  CD        26.8710   20.4430   22.7940 C.3    64  ARG64       0.2205
     71  NE        25.8500   19.9050   21.8610 N.pl3  64  ARG64      -0.0865
     72  CZ        26.0960   19.3370   20.6820 C.cat  64  ARG64       0.5346
     73  NH1       27.2860   19.2100   20.1610 N.pl3  64  ARG64       0.1354
     74  NH2       25.0960   18.8670   20.0250 N.pl3  64  ARG64       0.1354
     75  N         26.5810   -4.1160   29.0530 N.3    84  SER84      -0.1202
     76  CA        25.2080   -4.1450   28.4620 C.3    84  SER84       0.2020
     77  C         24.0130   -4.2410   29.4800 C.2    84  SER84       0.2619
     78  O         23.0420   -3.4930   29.3520 O.2    84  SER84      -0.2717
     79  CB        25.1790   -5.2590   27.3860 C.3    84  SER84       0.2103
     80  OG        25.3840   -6.5630   27.9440 O.3    84  SER84      -0.2182
     81  N         24.0850   -5.1360   30.4820 N.am   85  SER85      -0.1951
     82  CA        23.1140   -5.1830   31.6100 C.3    85  SER85       0.1924
     83  C         23.7110   -4.5480   32.9110 C.2    85  SER85       0.2314
     84  O         24.7850   -4.9470   33.3800 O.2    85  SER85      -0.2863
     85  CB        22.7110   -6.6620   31.8100 C.3    85  SER85       0.2116
     86  OG        21.6660   -6.7710   32.7790 O.3    85  SER85      -0.2180
     87  N         26.0620    2.1360   34.4660 N.3    89  ARG89      -0.1245
     88  CA        26.7350    1.5230   33.2800 C.3    89  ARG89       0.1563
     89  C         27.3530    2.5890   32.3080 C.2    89  ARG89       0.2260
     90  O         26.8720    3.7220   32.2030 O.2    89  ARG89      -0.2867
     91  CB        25.7720    0.5340   32.5510 C.3    89  ARG89       0.0307
     92  CG        24.5160    1.1220   31.8570 C.3    89  ARG89       0.0489
     93  CD        23.7720    0.1040   30.9770 C.3    89  ARG89       0.2205
     94  NE        22.6430    0.7530   30.2540 N.pl3  89  ARG89      -0.0865
     95  CZ        21.3920    0.8600   30.6880 C.cat  89  ARG89       0.5346
     96  NH1       20.9760    0.4460   31.8460 N.pl3  89  ARG89       0.1354
     97  NH2       20.5390    1.4230   29.9050 N.pl3  89  ARG89       0.1354
     98  N         29.0420    2.9610   27.9870 N.3    91  HIS91      -0.1241
     99  CA        29.2620    2.3610   26.6290 C.3    91  HIS91       0.1621
    100  C         30.2700    3.2270   25.7990 C.2    91  HIS91       0.2264
    101  O         30.2530    4.4620   25.8680 O.2    91  HIS91      -0.2867
    102  CB        27.9290    2.1710   25.8440 C.3    91  HIS91       0.0745
    103  CG        26.8180    1.3570   26.5140 C.ar   91  HIS91       0.0817
    104  ND1       25.5470    1.8630   26.7450 N.ar   91  HIS91      -0.2268
    105  CD2       26.9520    0.0780   27.0830 C.ar   91  HIS91       0.1154
    106  CE1       25.0280    0.8320   27.4830 C.ar   91  HIS91       0.1986
    107  NE2       25.7760   -0.2920   27.7060 N.ar   91  HIS91      -0.2212
    108  N         29.6020    8.2340   14.5040 N.3    96  GLN96      -0.1231
    109  CA        28.1720    8.6430   14.4360 C.3    96  GLN96       0.1698
    110  C         27.7370    9.1690   13.0280 C.2    96  GLN96       0.2592
    111  O         28.4880    9.8650   12.3380 O.2    96  GLN96      -0.2718
    112  CB        27.9870    9.7190   15.5420 C.3    96  GLN96       0.0381
    113  CG        28.0050    9.2230   17.0160 C.3    96  GLN96       0.0905
    114  CD        26.8580    8.3120   17.4640 C.2    96  GLN96       0.2608
    115  OE1       25.7530    8.7510   17.7640 O.2    96  GLN96      -0.2717
    116  NE2       27.0770    7.0260   17.5450 N.am   96  GLN96      -0.0878
    117  N         26.4860    8.8830   12.6120 N.am   97  GLU97      -0.1966
    118  CA        25.9320    9.3940   11.3150 C.3    97  GLU97       0.1733
    119  C         25.3710   10.8370   11.3120 C.2    97  GLU97       0.2616
    120  O         24.1920   11.0490   11.0380 O.2    97  GLU97      -0.2715
    121  CB        24.7770    8.4970   10.7800 C.3    97  GLU97       0.0429
    122  CG        25.2080    7.1010   10.3360 C.3    97  GLU97       0.1163
    123  CD        25.4250    6.0820   11.4210 C.2    97  GLU97       0.3649
    124  OE1       25.2220    6.3550   12.6430 O.co2  97  GLU97      -0.2457
    125  OE2       25.8130    4.9610   11.0350 O.co2  97  GLU97      -0.2457
    126  N         26.2330   11.8050   11.6240 N.am   98  TRP98      -0.1974
    127  CA        25.8610   13.2340   11.8630 C.3    98  TRP98       0.1640
    128  C         27.1430   14.1300   11.9190 C.2    98  TRP98       0.2290
    129  O         27.2810   15.0510   11.1090 O.2    98  TRP98      -0.2864
    130  CB        24.8640   13.4820   13.0440 C.3    98  TRP98       0.0576
    131  CG        25.0450   12.7220   14.3720 C.ar   98  TRP98       0.0006
    132  CD1       24.4990   11.4430   14.6390 C.ar   98  TRP98       0.0946
    133  CD2       25.6320   13.1330   15.5620 C.ar   98  TRP98       0.0152
    134  NE1       24.6810   11.0720   15.9880 N.ar   98  TRP98      -0.2442
    135  CE2       25.4070   12.1200   16.5300 C.ar   98  TRP98       0.0810
    136  CE3       26.3980   14.2820   15.8960 C.ar   98  TRP98       0.0012
    137  CZ2       25.9600   12.2380   17.8260 C.ar   98  TRP98       0.0191
    138  CZ3       26.9330   14.3750   17.1830 C.ar   98  TRP98       0.0001
    139  CH2       26.7220   13.3670   18.1310 C.ar   98  TRP98       0.0015
    140  N         30.0570    9.6130   19.9360 N.3   102  MET102     -0.1230
    141  CA        29.2770    9.7490   21.1990 C.3   102  MET102      0.1702
    142  C         29.3660    8.4520   22.0760 C.2   102  MET102      0.2592
    143  O         29.0420    7.3540   21.6180 O.2   102  MET102     -0.2718
    144  CB        27.8190   10.1520   20.8420 C.3   102  MET102      0.0401
    145  CG        26.9540   10.5910   22.0450 C.3   102  MET102      0.0596
    146  SD        25.3320   11.1510   21.4850 S.3   102  MET102     -0.1393
    147  CE        24.4360    9.5900   21.4630 C.3   102  MET102      0.0692
    148  N         29.7720    8.6020   23.3470 N.am  103  ALA103     -0.1966
    149  CA        29.6800    7.5190   24.3690 C.3   103  ALA103      0.1728
    150  C         28.4420    7.6650   25.3320 C.2   103  ALA103      0.2616
    151  O         27.7440    8.6850   25.3370 O.2   103  ALA103     -0.2715
    152  CB        31.0400    7.5640   25.0970 C.3   103  ALA103      0.0334
    153  N         28.1570    6.6480   26.1630 N.am  104  ALA104     -0.1977
    154  CA        27.0200    6.6800   27.1300 C.3   104  ALA104      0.1597
    155  C         27.4580    6.6540   28.6340 C.2   104  ALA104      0.2287
    156  O         28.4330    5.9910   29.0030 O.2   104  ALA104     -0.2864
    157  CB        26.1180    5.4780   26.7910 C.3   104  ALA104      0.0319
    158  N         25.1500    6.0150   32.3390 N.3   106  VAL106     -0.1245
    159  CA        23.9240    5.8310   33.1790 C.3   106  VAL106      0.1561
    160  C         24.3510    5.7720   34.6880 C.2   106  VAL106      0.2260
    161  O         25.3180    5.0950   35.0620 O.2   106  VAL106     -0.2867
    162  CB        23.1190    4.5690   32.7070 C.3   106  VAL106      0.0252
    163  CG1       21.8720    4.2500   33.5680 C.3   106  VAL106      0.0019
    164  CG2       22.6100    4.6710   31.2500 C.3   106  VAL106      0.0019
    165  N         18.9970    6.0570   36.8750 N.3   110  GLY110     -0.1225
    166  CA        18.5160    5.9040   35.4750 C.3   110  GLY110      0.1811
    167  C         18.5030    7.2020   34.6370 C.2   110  GLY110      0.2280
    168  O         17.4940    7.5140   33.9990 O.2   110  GLY110     -0.2866
    169  N         20.2310    9.2890   31.4460 N.3   112  LEU112     -0.1231
    170  CA        21.0010    8.9620   30.2130 C.3   112  LEU112      0.1693
    171  C         21.9180   10.1410   29.7350 C.2   112  LEU112      0.2592
    172  O         21.5240   10.9880   28.9230 O.2   112  LEU112     -0.2718
    173  CB        19.9520    8.5140   29.1620 C.3   112  LEU112      0.0284
    174  CG        20.5290    7.7900   27.9180 C.3   112  LEU112      0.0019
    175  CD1       20.7150    6.2870   28.1900 C.3   112  LEU112      0.0001
    176  CD2       19.5950    8.0030   26.7240 C.3   112  LEU112      0.0001
    177  N         23.1680   10.1810   30.2190 N.am  113  LEU113     -0.1966
    178  CA        24.1350   11.2530   29.8660 C.3   113  LEU113      0.1728
    179  C         24.8760   10.9160   28.5260 C.2   113  LEU113      0.2616
    180  O         25.6820    9.9820   28.4470 O.2   113  LEU113     -0.2715
    181  CB        25.0970   11.5380   31.0560 C.3   113  LEU113      0.0311
    182  CG        24.5260   12.4130   32.2060 C.3   113  LEU113      0.0022
    183  CD1       23.6510   11.6160   33.1850 C.3   113  LEU113      0.0001
    184  CD2       25.6520   13.0860   33.0000 C.3   113  LEU113      0.0001
    185  N         24.5730   11.6780   27.4620 N.am  114  ARG114     -0.1977
    186  CA        25.0940   11.4110   26.0910 C.3   114  ARG114      0.1597
    187  C         26.4520   12.1700   25.8840 C.2   114  ARG114      0.2287
    188  O         26.4920   13.3980   25.7610 O.2   114  ARG114     -0.2864
    189  CB        24.0140   11.8100   25.0400 C.3   114  ARG114      0.0334
    190  CG        22.6070   11.1560   25.1550 C.3   114  ARG114      0.0492
    191  CD        21.6680   11.5620   24.0020 C.3   114  ARG114      0.2205
    192  NE        20.2490   11.2760   24.3580 N.pl3 114  ARG114     -0.0865
    193  CZ        19.4070   10.4710   23.7230 C.cat 114  ARG114      0.5346
    194  NH1       19.7210    9.7290   22.7130 N.pl3 114  ARG114      0.1354
    195  NH2       18.1900   10.4240   24.1380 N.pl3 114  ARG114      0.1354
    196  N         29.3090   13.6680   24.1000 N.3   116  ILE116     -0.1245
    197  CA        29.6240   14.0660   22.6890 C.3   116  ILE116      0.1561
    198  C         31.1080   14.5680   22.5700 C.2   116  ILE116      0.2260
    199  O         31.5550   15.4200   23.3410 O.2   116  ILE116     -0.2867
    200  CB        28.5480   15.1030   22.1730 C.3   116  ILE116      0.0252
    201  CG1       27.1110   14.4920   22.1040 C.3   116  ILE116      0.0019
    202  CG2       28.9100   15.7250   20.7930 C.3   116  ILE116      0.0019
    203  CD1       25.9650   15.4520   21.7270 C.3   116  ILE116      0.0001
@<TRIPOS>BOND
     1   122   121    1
     2   122   123    1
     3   121   118    1
     4   125   123   ar
     5   120   119    2
     6   129   128    2
     7   119   118    1
     8   119   126   am
     9   118   117    1
    10   123   124   ar
    11   126   127    1
    12   127   128    1
    13   127   130    1
    14   111   110    2
    15   117   110   am
    16   110   109    1
    17   130   131    1
    18   131   132   ar
    19   131   133   ar
    20   109   108    1
    21   109   112    1
    22   132   134   ar
    23   112   113    1
    24   133   136   ar
    25   133   135   ar
    26   136   138   ar
    27   134   135   ar
    28   135   137   ar
    29   113   114    1
    30   138   139   ar
    31   114   116   am
    32   114   115    2
    33   137   139   ar
    34   140   141    1
    35    74    72    1
    36    73    72    1
    37    72    71    2
    38   202   200    1
    39   144   141    1
    40   144   145    1
    41   141   142    1
    42   147   146    1
    43   146   145    1
    44   143   142    2
    45   203   201    1
    46    71    70    1
    47   142   148   am
    48   201   200    1
    49   200   197    1
    50   198   197    1
    51   198   199    2
    52   197   196    1
    53   194   193    1
    54    70    69    1
    55   148   149    1
    56    69    68    1
    57   193   195    1
    58   193   192    2
    59   191   192    1
    60   191   190    1
    61    63    62    1
    62   149   152    1
    63   149   150    1
    64    68    65    1
    65    40    39   ar
    66    40    38   ar
    67    39    37   ar
    68    62    59    1
    69   189   190    1
    70   189   186    1
    71    65    66    1
    72    65    64    1
    73    66    67    2
    74   150   151    2
    75   150   153   am
    76    38    36   ar
    77   188   187    2
    78   100   101    2
    79   100    99    1
    80   102   103    1
    81   102    99    1
    82   187   186    1
    83   186   185    1
    84   153   154    1
    85    37    34   ar
    86    57    56    1
    87    59    58    1
    88    59    60    1
    89   103   104   ar
    90   103   105   ar
    91    99    98    1
    92   176   174    1
    93   104   106   ar
    94   157   154    1
    95    36    34   ar
    96    36    35   ar
    97   105   107   ar
    98   154   155    1
    99    34    32   ar
   100    60    61    2
   101    79    80    1
   102    79    76    1
   103   185   179   am
   104    56    53    1
   105   106   107   ar
   106    35    33   ar
   107   174   175    1
   108   174   173    1
   109   180   179    2
   110    76    75    1
   111    76    77    1
   112   179   178    1
   113    32    33   ar
   114    32    31    1
   115   155   156    2
   116    55    54    2
   117    54    53    1
   118    53    52    1
   119   172   171    2
   120   173   170    1
   121    78    77    2
   122    77    81   am
   123    52    43   am
   124    31    28    1
   125   171   170    1
   126   171   177   am
   127   178   177    1
   128   178   181    1
   129    97    95    1
   130   170   169    1
   131    94    95    2
   132    94    93    1
   133    28    29    1
   134    28    27    1
   135    30    29    2
   136    81    82    1
   137    29    41   am
   138    43    44    2
   139    43    42    1
   140    95    96    1
   141    41    42    1
   142    93    92    1
   143   181   182    1
   144   164   162    1
   145    42    45    1
   146    27    23   am
   147    11    10    2
   148    82    85    1
   149    82    83    1
   150    24    23    2
   151    85    86    1
   152    92    91    1
   153    23    22    1
   154    90    89    2
   155   182   184    1
   156   182   183    1
   157    89    88    1
   158   158   159    1
   159    91    88    1
   160    19    18    2
   161   162   159    1
   162   162   163    1
   163    10    16   am
   164    10     9    1
   165    17    18    1
   166    17    16    1
   167    17    20    1
   168    18    21   am
   169    45    46    1
   170    83    84    2
   171    15    13    1
   172   159   160    1
   173    21    22    1
   174    88    87    1
   175    22    25    1
   176     9    12    1
   177     9     8    1
   178    46    47   ar
   179    46    48   ar
   180    12    13    1
   181    47    49   ar
   182   168   167    2
   183    13    14    1
   184    48    50   ar
   185     4     3    2
   186    25    26    1
   187    49    51   ar
   188   167   166    1
   189   160   161    2
   190     8     3   am
   191    50    51   ar
   192     3     2    1
   193   166   165    1
   194     2     5    1
   195     2     1    1
   196     5     6    1
   197     1     7    1
   198     6     7    1
