@<TRIPOS>MOLECULE
tmp/1nisA00.pdb
 139 130 0 0 0
SMALL
GASTEIGER

@<TRIPOS>ATOM
      1  N         39.7240   27.2650   75.9030 N.3    71  GLN71      -0.1245
      2  CA        40.5250   27.4180   74.7000 C.3    71  GLN71       0.1566
      3  C         41.6990   28.3470   75.0920 C.2    71  GLN71       0.2260
      4  O         41.6340   29.0630   76.0980 O.2    71  GLN71      -0.2867
      5  CB        39.6180   27.9590   73.5720 C.3    71  GLN71       0.0367
      6  CG        38.6030   29.0490   73.8350 C.3    71  GLN71       0.0905
      7  CD        39.1390   30.4680   73.8080 C.2    71  GLN71       0.2608
      8  OE1       40.3550   30.7310   73.8030 O.2    71  GLN71      -0.2717
      9  NE2       38.2560   31.4510   73.6940 N.am   71  GLN71      -0.0878
     10  N         43.0200   31.2540   74.2690 N.3    73  ALA73      -0.1231
     11  CA        42.9740   32.6660   74.4820 C.3    73  ALA73       0.1694
     12  C         42.3140   33.0570   75.7970 C.2    73  ALA73       0.2592
     13  O         42.4610   34.2060   76.2580 O.2    73  ALA73      -0.2718
     14  CB        42.2460   33.3120   73.3520 C.3    73  ALA73       0.0304
     15  N         41.5650   32.2080   76.4880 N.am   74  THR74      -0.1953
     16  CA        40.9040   32.5390   77.7520 C.3    74  THR74       0.1897
     17  C         41.4590   31.6290   78.8230 C.2    74  THR74       0.2313
     18  O         41.3690   31.9480   80.0160 O.2    74  THR74      -0.2863
     19  CB        39.3250   32.3840   77.6220 C.3    74  THR74       0.1794
     20  OG1       39.0550   31.0920   77.0960 O.3    74  THR74      -0.2208
     21  CG2       38.6880   33.4070   76.6640 C.3    74  THR74       0.0378
     22  N         43.2780   29.2560   69.2720 N.3   100  HIS100     -0.1241
     23  CA        43.1110   30.6920   69.0140 C.3   100  HIS100      0.1621
     24  C         44.3560   31.4610   68.5890 C.2   100  HIS100      0.2264
     25  O         44.2540   32.6090   68.1380 O.2   100  HIS100     -0.2867
     26  CB        42.5110   31.3650   70.2670 C.3   100  HIS100      0.0745
     27  CG        40.9870   31.2080   70.3840 C.ar  100  HIS100      0.0817
     28  ND1       40.2010   30.1210   70.4970 N.ar  100  HIS100     -0.2268
     29  CD2       40.1300   32.2780   70.2750 C.ar  100  HIS100      0.1154
     30  CE1       38.9560   30.4630   70.4480 C.ar  100  HIS100      0.1986
     31  NE2       38.9340   31.7660   70.3120 N.ar  100  HIS100     -0.2212
     32  N         34.2070   30.2310   76.5070 N.3   164  ASP164     -0.1225
     33  CA        34.0760   30.6360   75.1320 C.3   164  ASP164      0.1805
     34  C         32.5690   30.7540   74.9390 C.2   164  ASP164      0.2598
     35  O         31.7840   29.9160   75.3720 O.2   164  ASP164     -0.2718
     36  CB        34.6330   29.5710   74.1830 C.3   164  ASP164      0.1424
     37  CG        34.7400   30.0930   72.7690 C.2   164  ASP164      0.3668
     38  OD1       35.7550   30.6840   72.4320 O.co2 164  ASP164     -0.2456
     39  OD2       33.7940   29.9700   71.9790 O.co2 164  ASP164     -0.2456
     40  N         32.0690   31.7820   74.3170 N.am  165  SER165     -0.1938
     41  CA        30.6500   31.9700   74.1250 C.3   165  SER165      0.2055
     42  C         30.0930   31.0260   73.0630 C.2   165  SER165      0.2643
     43  O         28.8820   31.0660   72.8920 O.2   165  SER165     -0.2714
     44  CB        30.3490   33.4600   73.7600 C.3   165  SER165      0.2130
     45  OG        30.5180   33.7200   72.3610 O.3   165  SER165     -0.2179
     46  N         30.8290   30.2900   72.2060 N.am  166  HIS166     -0.1973
     47  CA        30.1640   29.3210   71.3410 C.3   166  HIS166      0.1656
     48  C         30.1620   27.8930   71.9490 C.2   166  HIS166      0.2291
     49  O         29.9510   26.8960   71.2510 O.2   166  HIS166     -0.2864
     50  CB        30.8070   29.3630   69.9400 C.3   166  HIS166      0.0771
     51  CG        30.4290   30.6880   69.2270 C.ar  166  HIS166      0.0820
     52  ND1       31.2120   31.7360   68.9400 N.ar  166  HIS166     -0.2267
     53  CD2       29.1430   31.0360   68.8810 C.ar  166  HIS166      0.1154
     54  CE1       30.4240   32.6920   68.4670 C.ar  166  HIS166      0.1986
     55  NE2       29.1940   32.2680   68.4430 N.ar  166  HIS166     -0.2212
     56  N         40.9230   28.5550   64.8760 N.3   420  CYS420     -0.1235
     57  CA        40.0330   29.6810   64.6250 C.3   420  CYS420      0.1677
     58  C         40.5170   30.5210   63.4540 C.2   420  CYS420      0.2270
     59  O         39.7020   30.8460   62.5960 O.2   420  CYS420     -0.2867
     60  CB        39.9580   30.5350   65.9020 C.3   420  CYS420      0.0956
     61  SG        39.3990   29.5110   67.2920 S.3   420  CYS420     -0.0801
     62  N         38.4180   33.5230   61.7820 N.3   423  CYS423     -0.1221
     63  CA        37.2570   33.7780   62.6190 C.3   423  CYS423      0.1808
     64  C         37.5040   34.7320   63.8050 C.2   423  CYS423      0.2601
     65  O         36.5360   35.4050   64.1720 O.2   423  CYS423     -0.2717
     66  CB        36.7520   32.4200   63.0560 C.3   423  CYS423      0.0970
     67  SG        35.0440   32.3530   63.6570 S.3   423  CYS423     -0.0800
     68  N         38.6740   34.9040   64.4270 N.am  424  ILE424     -0.1979
     69  CA        38.8700   35.9100   65.4990 C.3   424  ILE424      0.1595
     70  C         39.9530   36.8720   64.9750 C.2   424  ILE424      0.2287
     71  O         40.7800   37.3810   65.7550 O.2   424  ILE424     -0.2864
     72  CB        39.4620   35.3980   66.9050 C.3   424  ILE424      0.0276
     73  CG1       39.7720   33.9690   66.6850 C.3   424  ILE424      0.0022
     74  CG2       38.5870   35.7500   68.1690 C.3   424  ILE424      0.0022
     75  CD1       41.2770   33.7600   66.7200 C.3   424  ILE424      0.0001
     76  N         29.9050   35.3410   63.7680 N.3   446  ARG446     -0.1245
     77  CA        29.9160   36.7700   64.0210 C.3   446  ARG446      0.1563
     78  C         30.4910   37.4720   62.8060 C.2   446  ARG446      0.2260
     79  O         31.3910   36.9780   62.1350 O.2   446  ARG446     -0.2867
     80  CB        30.7900   37.1740   65.2040 C.3   446  ARG446      0.0307
     81  CG        30.1760   36.7710   66.4780 C.3   446  ARG446      0.0489
     82  CD        31.0020   36.9410   67.7400 C.3   446  ARG446      0.2205
     83  NE        30.1370   36.4070   68.7980 N.pl3 446  ARG446     -0.0865
     84  CZ        30.4750   35.7180   69.9040 C.cat 446  ARG446      0.5346
     85  NH1       31.7640   35.3960   70.1930 N.pl3 446  ARG446      0.1354
     86  NH2       29.4620   35.3310   70.6970 N.pl3 446  ARG446      0.1354
     87  N         36.4490   42.4800   62.8060 N.3   451  ARG451     -0.1245
     88  CA        36.7700   41.2710   63.5480 C.3   451  ARG451      0.1563
     89  C         37.5170   40.2120   62.7680 C.2   451  ARG451      0.2260
     90  O         38.2780   39.4650   63.3630 O.2   451  ARG451     -0.2867
     91  CB        35.5130   40.6280   64.0830 C.3   451  ARG451      0.0307
     92  CG        35.8000   39.5360   65.1050 C.3   451  ARG451      0.0489
     93  CD        34.5220   38.7760   65.0990 C.3   451  ARG451      0.2205
     94  NE        34.7690   37.4020   65.4230 N.pl3 451  ARG451     -0.0865
     95  CZ        34.9160   36.9420   66.6590 C.cat 451  ARG451      0.5346
     96  NH1       34.8140   37.7220   67.7400 N.pl3 451  ARG451      0.1354
     97  NH2       35.1200   35.6410   66.7790 N.pl3 451  ARG451      0.1354
     98  N         45.6310   39.3210   70.9700 N.3   576  LEU576     -0.1245
     99  CA        45.6040   37.9690   71.5420 C.3   576  LEU576      0.1561
    100  C         46.9140   37.5410   72.1890 C.2   576  LEU576      0.2260
    101  O         46.9890   36.6960   73.1000 O.2   576  LEU576     -0.2867
    102  CB        45.2170   36.9340   70.4660 C.3   576  LEU576      0.0270
    103  CG        43.7660   37.0290   69.9620 C.3   576  LEU576      0.0019
    104  CD1       43.3950   35.8880   69.0410 C.3   576  LEU576      0.0001
    105  CD2       42.8610   36.9610   71.1490 C.3   576  LEU576      0.0001
    106  N         46.9210   37.9770   75.9580 N.3   579  ARG579     -0.1245
    107  CA        45.8210   37.5050   76.7890 C.3   579  ARG579      0.1563
    108  C         46.2240   36.9780   78.1430 C.2   579  ARG579      0.2260
    109  O         45.3330   36.7420   78.9680 O.2   579  ARG579     -0.2867
    110  CB        45.0460   36.3930   76.1090 C.3   579  ARG579      0.0307
    111  CG        44.2740   37.0120   74.9760 C.3   579  ARG579      0.0489
    112  CD        43.2180   38.0770   75.3420 C.3   579  ARG579      0.2205
    113  NE        42.1220   37.2550   75.4820 N.pl3 579  ARG579     -0.0865
    114  CZ        41.1210   37.2170   74.6050 C.cat 579  ARG579      0.5346
    115  NH1       40.7380   38.2070   73.7880 N.pl3 579  ARG579      0.1354
    116  NH2       40.4260   36.1140   74.7710 N.pl3 579  ARG579      0.1354
    117  N         31.6010   37.9430   72.5880 N.3   641  SER641     -0.1202
    118  CA        32.5400   37.0400   73.1780 C.3   641  SER641      0.2020
    119  C         32.6560   37.1590   74.7010 C.2   641  SER641      0.2619
    120  O         32.6360   38.2760   75.2590 O.2   641  SER641     -0.2717
    121  CB        33.8140   37.3310   72.4350 C.3   641  SER641      0.2103
    122  OG        34.9400   36.9600   73.0900 O.3   641  SER641     -0.2182
    123  N         32.9800   36.0190   75.3210 N.am  642  SER642     -0.1937
    124  CA        32.9760   35.8720   76.7630 C.3   642  SER642      0.2055
    125  C         34.1870   36.4660   77.4900 C.2   642  SER642      0.2642
    126  O         34.2100   36.4550   78.7150 O.2   642  SER642     -0.2714
    127  CB        32.9020   34.3850   77.0780 C.3   642  SER642      0.2130
    128  OG        34.1500   33.8350   76.5900 O.3   642  SER642     -0.2179
    129  N         35.1670   37.0050   76.7760 N.am  643  ARG643     -0.1977
    130  CA        36.4700   37.3800   77.3420 C.3   643  ARG643      0.1597
    131  C         36.4030   38.1810   78.6380 C.2   643  ARG643      0.2287
    132  O         35.9590   39.3180   78.6210 O.2   643  ARG643     -0.2864
    133  CB        37.2610   38.1420   76.2380 C.3   643  ARG643      0.0334
    134  CG        36.6280   39.4440   75.7210 C.3   643  ARG643      0.0492
    135  CD        37.3070   39.9390   74.4650 C.3   643  ARG643      0.2205
    136  NE        37.0720   39.0310   73.3470 N.pl3 643  ARG643     -0.0865
    137  CZ        37.0000   39.4880   72.0900 C.cat 643  ARG643      0.5346
    138  NH1       37.2190   40.7680   71.8390 N.pl3 643  ARG643      0.1354
    139  NH2       36.7380   38.6540   71.0700 N.pl3 643  ARG643      0.1354
@<TRIPOS>BOND
     1    62    63    1
     2    79    78    2
     3    59    58    2
     4    63    66    1
     5    63    64    1
     6    89    90    2
     7    89    88    1
     8    78    77    1
     9    87    88    1
    10    66    67    1
    11    58    57    1
    12    88    91    1
    13    76    77    1
    14    64    65    2
    15    64    68   am
    16    77    80    1
    17    91    92    1
    18    68    69    1
    19    57    56    1
    20    57    60    1
    21    70    69    1
    22    70    71    2
    23    93    92    1
    24    93    94    1
    25    80    81    1
    26    94    95    2
    27    69    72    1
    28    60    61    1
    29    81    82    1
    30    95    97    1
    31    95    96    1
    32    73    75    1
    33    73    72    1
    34    72    74    1
    35    82    83    1
    36    25    24    2
    37    55    54   ar
    38    55    53   ar
    39    54    52   ar
    40    24    23    1
    41    83    84    2
    42    53    51   ar
    43    52    51   ar
    44    23    22    1
    45    23    26    1
    46   104   103    1
    47    51    50    1
    48    84    85    1
    49    84    86    1
    50    50    47    1
    51   103   102    1
    52   103   105    1
    53    26    27    1
    54    29    31   ar
    55    29    27   ar
    56    31    30   ar
    57    27    28   ar
    58    30    28   ar
    59   102    99    1
    60    98    99    1
    61   139   137    1
    62    49    48    2
    63    47    48    1
    64    47    46    1
    65    99   100    1
    66   138   137    1
    67    39    37   ar
    68   137   136    2
    69   100   101    2
    70    46    42   am
    71    45    44    1
    72    38    37   ar
    73   121   122    1
    74   121   118    1
    75   117   118    1
    76    37    36    1
    77    43    42    2
    78    42    41    1
    79   118   119    1
    80   136   135    1
    81    14    11    1
    82     5     6    1
    83     5     2    1
    84     9     7   am
    85    44    41    1
    86   115   114    1
    87     8     7    2
    88     7     6    1
    89    41    40    1
    90    36    33    1
    91    10    11    1
    92    40    34   am
    93   135   134    1
    94    11    12    1
    95   114   116    1
    96   114   113    2
    97     2     3    1
    98     2     1    1
    99   119   120    2
   100   119   123   am
   101    34    33    1
   102    34    35    2
   103   111   112    1
   104   111   110    1
   105     3     4    2
   106    33    32    1
   107   123   124    1
   108   112   113    1
   109   134   133    1
   110    12    13    2
   111    12    15   am
   112   106   107    1
   113   110   107    1
   114   133   130    1
   115    15    16    1
   116   128   127    1
   117    21    19    1
   118   124   127    1
   119   124   125    1
   120   129   130    1
   121   129   125   am
   122   107   108    1
   123    20    19    1
   124   130   131    1
   125   125   126    2
   126    19    16    1
   127    16    17    1
   128   108   109    2
   129   132   131    2
   130    17    18    2
