@<TRIPOS>MOLECULE
tmp/1nivA01.pdb
 75 69 0 0 0
SMALL
GASTEIGER

@<TRIPOS>ATOM
      1  N        119.7760   48.5160  134.8190 N.3    57  GLN57      -0.1231
      2  CA       118.6140   49.0570  134.1280 C.3    57  GLN57       0.1698
      3  C        118.9270   49.9400  132.9240 C.2    57  GLN57       0.2593
      4  O        120.0190   50.5100  132.8270 O.2    57  GLN57      -0.2718
      5  CB       117.7670   49.8370  135.1070 C.3    57  GLN57       0.0381
      6  CG       117.5080   49.1190  136.4070 C.3    57  GLN57       0.0905
      7  CD       116.5240   49.8690  137.2780 C.2    57  GLN57       0.2608
      8  OE1      115.7080   49.2640  137.9540 O.2    57  GLN57      -0.2717
      9  NE2      116.5780   51.1960  137.2420 N.am   57  GLN57      -0.0878
     10  N        117.9410   50.0810  132.0330 N.am   58  THR58      -0.1939
     11  CA       118.0710   50.8940  130.8120 C.3    58  THR58       0.2028
     12  C        118.0890   52.3770  131.0960 C.2    58  THR58       0.2642
     13  O        118.4990   53.1660  130.2550 O.2    58  THR58      -0.2714
     14  CB       116.9290   50.6400  129.8480 C.3    58  THR58       0.1808
     15  OG1      115.7350   50.4060  130.6000 O.3    58  THR58      -0.2208
     16  CG2      117.2310   49.4460  128.9660 C.3    58  THR58       0.0379
     17  N        117.5640   52.7620  132.2490 N.am   59  ASP59      -0.1971
     18  CA       117.5750   54.1530  132.6300 C.3    59  ASP59       0.1709
     19  C        118.9550   54.5330  133.1610 C.2    59  ASP59       0.2293
     20  O        119.2120   55.7010  133.4400 O.2    59  ASP59      -0.2864
     21  CB       116.4830   54.4430  133.6590 C.3    59  ASP59       0.1436
     22  CG       116.7390   53.7940  135.0020 C.2    59  ASP59       0.3671
     23  OD1      117.5740   52.8700  135.1120 O.co2  59  ASP59      -0.2456
     24  OD2      116.0790   54.2220  135.9620 O.co2  59  ASP59      -0.2456
     25  N        120.3750   53.1590  135.9860 N.3    61  ASN61      -0.1240
     26  CA       120.5080   52.8700  137.4070 C.3    61  ASN61       0.1653
     27  C        120.9520   51.4220  137.6400 C.2    61  ASN61       0.2266
     28  O        120.4130   50.4900  137.0380 O.2    61  ASN61      -0.2867
     29  CB       119.1690   53.1290  138.0990 C.3    61  ASN61       0.1155
     30  CG       119.3200   53.3930  139.5680 C.2    61  ASN61       0.2627
     31  OD1      120.3810   53.1720  140.1450 O.2    61  ASN61      -0.2716
     32  ND2      118.2700   53.9040  140.1800 N.am   61  ASN61      -0.0877
     33  N        120.7460   48.7300  140.0950 N.3    63  VAL63      -0.1245
     34  CA       120.0250   48.3940  141.3110 C.3    63  VAL63       0.1561
     35  C        120.0950   46.9480  141.7920 C.2    63  VAL63       0.2260
     36  O        120.0670   46.0150  140.9930 O.2    63  VAL63      -0.2867
     37  CB       118.5360   48.7500  141.1520 C.3    63  VAL63       0.0252
     38  CG1      117.7800   48.4330  142.4070 C.3    63  VAL63       0.0019
     39  CG2      118.3840   50.2060  140.7800 C.3    63  VAL63       0.0019
     40  N        117.9380   44.4270  143.7940 N.3    65  TYR65      -0.1241
     41  CA       116.5660   44.2240  144.2680 C.3    65  TYR65       0.1605
     42  C        116.4330   42.9700  145.0860 C.2    65  TYR65       0.2264
     43  O        117.1860   42.0170  144.8940 O.2    65  TYR65      -0.2867
     44  CB       115.6090   44.0580  143.0940 C.3    65  TYR65       0.0534
     45  CG       115.3630   45.2880  142.2920 C.ar   65  TYR65      -0.0201
     46  CD1      114.4830   46.2590  142.7440 C.ar   65  TYR65      -0.0009
     47  CD2      115.9740   45.4650  141.0500 C.ar   65  TYR65      -0.0009
     48  CE1      114.2050   47.3840  141.9760 C.ar   65  TYR65       0.0417
     49  CE2      115.7030   46.5910  140.2660 C.ar   65  TYR65       0.0417
     50  CZ       114.8170   47.5410  140.7360 C.ar   65  TYR65       0.1957
     51  OH       114.5280   48.6450  139.9820 O.3    65  TYR65      -0.2866
     52  N        114.0350   47.7340  146.2470 N.3    71  PRO71      -0.2116
     53  CA       115.4530   47.9860  145.9910 C.3    71  PRO71       0.1372
     54  C        116.1970   48.1200  147.3100 C.2    71  PRO71       0.2244
     55  O        115.7810   48.8850  148.1770 O.2    71  PRO71      -0.2868
     56  CB       115.4310   49.3050  145.2310 C.3    71  PRO71       0.0268
     57  CG       114.2350   49.9840  145.7480 C.3    71  PRO71       0.0207
     58  CD       113.2120   48.8750  145.8160 C.3    71  PRO71       0.0892
     59  N        121.3460   50.8430  145.1790 N.3    74  ALA74      -0.1245
     60  CA       121.3160   51.3310  143.8020 C.3    74  ALA74       0.1562
     61  C        122.3900   52.3870  143.6230 C.2    74  ALA74       0.2260
     62  O        122.7500   53.0700  144.5800 O.2    74  ALA74      -0.2867
     63  CB       119.9560   51.9120  143.4800 C.3    74  ALA74       0.0290
     64  N        122.0090   54.9170  141.8780 N.3    76  ASN76      -0.1240
     65  CA       121.2710   56.1660  141.7480 C.3    76  ASN76       0.1653
     66  C        121.6110   56.9390  140.4910 C.2    76  ASN76       0.2266
     67  O        121.3360   58.1250  140.3970 O.2    76  ASN76      -0.2867
     68  CB       121.4880   57.0480  142.9680 C.3    76  ASN76       0.1155
     69  CG       120.8140   56.5040  144.1900 C.2    76  ASN76       0.2627
     70  OD1      119.8420   55.7510  144.0970 O.2    76  ASN76      -0.2716
     71  ND2      121.3190   56.8750  145.3520 N.am   76  ASN76      -0.0877
     72  N        120.1830   56.6590  137.7540 N.3    78  GLY78      -0.1225
     73  CA       119.0230   56.4970  136.8890 C.3    78  GLY78       0.1811
     74  C        118.6160   57.8120  136.2550 C.2    78  GLY78       0.2280
     75  O        118.8570   58.8810  136.8200 O.2    78  GLY78      -0.2866
@<TRIPOS>BOND
     1    16    14    1
     2    14    15    1
     3    14    11    1
     4    13    12    2
     5    11    12    1
     6    11    10    1
     7    12    17   am
     8    10     3   am
     9    17    18    1
    10    18    19    1
    11    18    21    1
    12     4     3    2
    13     3     2    1
    14    19    20    2
    15    21    22    1
    16     2     1    1
    17     2     5    1
    18    22    23   ar
    19    22    24   ar
    20     5     6    1
    21    25    26    1
    22    74    75    2
    23    74    73    1
    24     6     7    1
    25    73    72    1
    26    28    27    2
    27     9     7   am
    28     7     8    2
    29    26    27    1
    30    26    29    1
    31    29    30    1
    32    30    31    2
    33    30    32   am
    34    51    50    1
    35    33    34    1
    36    49    50   ar
    37    49    47   ar
    38    67    66    2
    39    66    65    1
    40    50    48   ar
    41    39    37    1
    42    36    35    2
    43    47    45   ar
    44    37    34    1
    45    37    38    1
    46    34    35    1
    47    65    64    1
    48    65    68    1
    49    48    46   ar
    50    45    46   ar
    51    45    44    1
    52    68    69    1
    53    44    41    1
    54    63    60    1
    55    61    60    1
    56    61    62    2
    57    40    41    1
    58    60    59    1
    59    70    69    2
    60    69    71   am
    61    41    42    1
    62    43    42    2
    63    56    57    1
    64    56    53    1
    65    57    58    1
    66    58    52    1
    67    53    52    1
    68    53    54    1
    69    54    55    2
