@<TRIPOS>MOLECULE
tmp/1nivA02.pdb
 77 71 0 0 0
SMALL
GASTEIGER

@<TRIPOS>ATOM
      1  N        125.8670   38.0760  146.0250 N.3    26  GLN26      -0.1231
      2  CA       125.6880   36.9760  146.9660 C.3    26  GLN26       0.1698
      3  C        124.2610   36.6740  147.4420 C.2    26  GLN26       0.2592
      4  O        123.3370   37.4730  147.2720 O.2    26  GLN26      -0.2718
      5  CB       126.6090   37.1890  148.1620 C.3    26  GLN26       0.0381
      6  CG       128.0120   37.6020  147.7670 C.3    26  GLN26       0.0905
      7  CD       128.9560   37.6810  148.9410 C.2    26  GLN26       0.2608
      8  OE1      130.1400   37.4160  148.8030 O.2    26  GLN26      -0.2717
      9  NE2      128.4350   38.0280  150.1090 N.am   26  GLN26      -0.0878
     10  N        124.1140   35.5040  148.0590 N.am   27  GLU27      -0.1966
     11  CA       122.8450   35.0290  148.6010 C.3    27  GLU27       0.1733
     12  C        122.2940   35.9750  149.6650 C.2    27  GLU27       0.2616
     13  O        121.1170   36.3280  149.6530 O.2    27  GLU27      -0.2715
     14  CB       123.0270   33.6160  149.1660 C.3    27  GLU27       0.0429
     15  CG       121.7800   32.9960  149.7840 C.3    27  GLU27       0.1163
     16  CD       120.6740   32.7180  148.7790 C.2    27  GLU27       0.3649
     17  OE1      120.0500   33.6820  148.2930 O.co2  27  GLU27      -0.2457
     18  OE2      120.4060   31.5330  148.5010 O.co2  27  GLU27      -0.2457
     19  N        123.1680   36.4450  150.5400 N.am   28  ASP28      -0.1971
     20  CA       122.7670   37.3500  151.6040 C.3    28  ASP28       0.1709
     21  C        122.4640   38.7750  151.1360 C.2    28  ASP28       0.2293
     22  O        122.2250   39.6670  151.9590 O.2    28  ASP28      -0.2864
     23  CB       123.8300   37.3780  152.6990 C.3    28  ASP28       0.1436
     24  CG       125.1620   37.9210  152.2240 C.2    28  ASP28       0.3671
     25  OD1      125.3210   38.2200  151.0190 O.co2  28  ASP28      -0.2456
     26  OD2      126.0660   38.0460  153.0760 O.co2  28  ASP28      -0.2456
     27  N        124.5640   40.7650  149.4840 N.3    30  ASN30      -0.1240
     28  CA       125.6960   41.6530  149.5560 C.3    30  ASN30       0.1653
     29  C        126.4250   41.6000  148.2320 C.2    30  ASN30       0.2266
     30  O        126.8390   40.5320  147.7900 O.2    30  ASN30      -0.2867
     31  CB       126.6090   41.2480  150.6970 C.3    30  ASN30       0.1155
     32  CG       127.4260   42.3980  151.1930 C.2    30  ASN30       0.2627
     33  OD1      127.2010   43.5430  150.7900 O.2    30  ASN30      -0.2716
     34  ND2      128.3730   42.1240  152.0800 N.am   30  ASN30      -0.0877
     35  N        129.4610   42.1560  146.4480 N.3    32  VAL32      -0.1245
     36  CA       130.8640   42.2970  146.8250 C.3    32  VAL32       0.1561
     37  C        131.8310   42.1040  145.6620 C.2    32  VAL32       0.2260
     38  O        131.5360   41.3620  144.7280 O.2    32  VAL32      -0.2867
     39  CB       131.2160   41.2660  147.9180 C.3    32  VAL32       0.0252
     40  CG1      132.6360   41.4740  148.4240 C.3    32  VAL32       0.0019
     41  CG2      130.2000   41.3450  149.0550 C.3    32  VAL32       0.0019
     42  N        135.5630   40.8780  144.9840 N.3    34  TYR34      -0.1241
     43  CA       136.6750   40.1760  145.6140 C.3    34  TYR34       0.1605
     44  C        137.8930   40.1340  144.7100 C.2    34  TYR34       0.2264
     45  O        137.7500   40.0520  143.4840 O.2    34  TYR34      -0.2867
     46  CB       136.3050   38.7240  145.9020 C.3    34  TYR34       0.0534
     47  CG       135.2680   38.5140  146.9690 C.ar   34  TYR34      -0.0201
     48  CD1      135.6310   38.4560  148.3240 C.ar   34  TYR34      -0.0009
     49  CD2      133.9240   38.3430  146.6320 C.ar   34  TYR34      -0.0009
     50  CE1      134.6830   38.2280  149.3160 C.ar   34  TYR34       0.0417
     51  CE2      132.9640   38.1170  147.6130 C.ar   34  TYR34       0.0417
     52  CZ       133.3500   38.0610  148.9570 C.ar   34  TYR34       0.1957
     53  OH       132.4040   37.8740  149.9440 O.3    34  TYR34      -0.2866
     54  N        138.1070   40.7130  150.2120 N.3    39  PRO39      -0.2116
     55  CA       136.9760   41.5650  149.8480 C.3    39  PRO39       0.1372
     56  C        137.5850   42.9260  149.5140 C.2    39  PRO39       0.2244
     57  O        138.5000   43.3790  150.2050 O.2    39  PRO39      -0.2868
     58  CB       136.1860   41.6460  151.1470 C.3    39  PRO39       0.0268
     59  CG       136.6150   40.4250  151.9020 C.3    39  PRO39       0.0207
     60  CD       138.0720   40.3940  151.6400 C.3    39  PRO39       0.0892
     61  N        131.9600   46.5170  148.5510 N.3    42  ALA42      -0.1245
     62  CA       130.7170   45.8620  148.9040 C.3    42  ALA42       0.1562
     63  C        129.6470   46.8940  149.1620 C.2    42  ALA42       0.2260
     64  O        129.9370   47.9740  149.6430 O.2    42  ALA42      -0.2867
     65  CB       130.9300   45.0180  150.1440 C.3    42  ALA42       0.0290
     66  N        127.5220   46.5260  151.3010 N.3    44  ASN44      -0.1240
     67  CA       127.2820   46.3890  152.7270 C.3    44  ASN44       0.1653
     68  C        125.8140   46.2450  153.0680 C.2    44  ASN44       0.2266
     69  O        125.3430   46.7620  154.0720 O.2    44  ASN44      -0.2867
     70  CB       127.9110   47.5610  153.4680 C.3    44  ASN44       0.1155
     71  CG       129.4130   47.4780  153.4680 C.2    44  ASN44       0.2627
     72  OD1      129.9810   46.3710  153.4000 O.2    44  ASN44      -0.2716
     73  ND2      130.0770   48.6230  153.5120 N.am   44  ASN44      -0.0877
     74  N        124.5130   43.1030  153.1220 N.3    46  GLY46      -0.1225
     75  CA       124.4050   41.6980  153.4680 C.3    46  GLY46       0.1811
     76  C        123.4870   41.4870  154.6470 C.2    46  GLY46       0.2280
     77  O        123.5150   42.2540  155.6170 O.2    46  GLY46      -0.2866
@<TRIPOS>BOND
     1    45    44    2
     2    44    43    1
     3    38    37    2
     4    42    43    1
     5    43    46    1
     6    37    36    1
     7    46    47    1
     8     1     2    1
     9    35    36    1
    10    49    47   ar
    11    49    51   ar
    12    36    39    1
    13     2     3    1
    14     2     5    1
    15    47    48   ar
    16     4     3    2
    17     3    10   am
    18    51    52   ar
    19     6     5    1
    20     6     7    1
    21    30    29    2
    22    39    40    1
    23    39    41    1
    24    10    11    1
    25    29    28    1
    26    17    16   ar
    27    48    50   ar
    28    18    16   ar
    29    61    62    1
    30    11    14    1
    31    11    12    1
    32    16    15    1
    33     8     7    2
    34    62    63    1
    35    62    65    1
    36     7     9   am
    37    52    50   ar
    38    52    53    1
    39    63    64    2
    40    14    15    1
    41    27    28    1
    42    56    55    1
    43    56    57    2
    44    28    31    1
    45    13    12    2
    46    12    19   am
    47    55    54    1
    48    55    58    1
    49    54    60    1
    50    19    20    1
    51    31    32    1
    52    33    32    2
    53    25    24   ar
    54    21    20    1
    55    21    22    2
    56    58    59    1
    57    32    34   am
    58    66    67    1
    59    20    23    1
    60    60    59    1
    61    24    23    1
    62    24    26   ar
    63    67    68    1
    64    67    70    1
    65    68    69    2
    66    74    75    1
    67    72    71    2
    68    70    71    1
    69    71    73   am
    70    75    76    1
    71    76    77    2
