@<TRIPOS>MOLECULE
tmp/1nj5A00.pdb
 228 221 0 0 0
SMALL
GASTEIGER

@<TRIPOS>ATOM
      1  N        -39.5170  -90.5270  -40.0480 N.3    75  PHE75      -0.1241
      2  CA       -39.8800  -90.2500  -38.6590 C.3    75  PHE75       0.1605
      3  C        -41.0260  -91.1610  -38.1790 C.2    75  PHE75       0.2264
      4  O        -41.5700  -90.9810  -37.0880 O.2    75  PHE75      -0.2867
      5  CB       -40.2580  -88.7650  -38.4960 C.3    75  PHE75       0.0534
      6  CG       -39.1400  -87.8060  -38.8460 C.ar   75  PHE75      -0.0203
      7  CD1      -38.9870  -87.3320  -40.1510 C.ar   75  PHE75      -0.0042
      8  CD2      -38.2160  -87.4020  -37.8780 C.ar   75  PHE75      -0.0042
      9  CE1      -37.9270  -86.4680  -40.4860 C.ar   75  PHE75      -0.0003
     10  CE2      -37.1530  -86.5400  -38.2020 C.ar   75  PHE75      -0.0003
     11  CZ       -37.0100  -86.0750  -39.5080 C.ar   75  PHE75      -0.0000
     12  N        -40.2040  -81.9250  -36.6880 N.3    99  THR99      -0.1218
     13  CA       -39.6380  -80.8700  -37.5050 C.3    99  THR99       0.1862
     14  C        -40.9150  -80.3810  -38.1890 C.2    99  THR99       0.2287
     15  O        -41.8630  -81.1430  -38.3060 O.2    99  THR99      -0.2866
     16  CB       -38.5890  -81.4230  -38.4970 C.3    99  THR99       0.1770
     17  OG1      -38.1880  -80.3770  -39.3860 O.3    99  THR99      -0.2211
     18  CG2      -39.1430  -82.5900  -39.2890 C.3    99  THR99       0.0375
     19  N        -41.8830  -79.3800  -41.4990 N.3   101  GLU101     -0.1245
     20  CA       -42.2110  -79.3730  -42.9230 C.3   101  GLU101      0.1567
     21  C        -43.6920  -79.6240  -43.1750 C.2   101  GLU101      0.2260
     22  O        -44.3390  -78.8760  -43.9040 O.2   101  GLU101     -0.2867
     23  CB       -41.4120  -80.4290  -43.6850 C.3   101  GLU101      0.0388
     24  CG       -39.9670  -80.1000  -43.9530 C.3   101  GLU101      0.1160
     25  CD       -39.1270  -80.1480  -42.7150 C.2   101  GLU101      0.3649
     26  OE1      -39.5160  -80.8420  -41.7580 O.co2 101  GLU101     -0.2457
     27  OE2      -38.0630  -79.5060  -42.7020 O.co2 101  GLU101     -0.2457
     28  N        -38.7030  -85.8880  -30.6180 N.3   130  ARG130     -0.1245
     29  CA       -38.2350  -87.0540  -31.3610 C.3   130  ARG130      0.1563
     30  C        -37.9860  -88.2240  -30.4380 C.2   130  ARG130      0.2260
     31  O        -37.1030  -88.1730  -29.5860 O.2   130  ARG130     -0.2867
     32  CB       -36.9520  -86.7260  -32.1320 C.3   130  ARG130      0.0307
     33  CG       -37.1760  -85.7400  -33.2500 C.3   130  ARG130      0.0489
     34  CD       -35.9080  -85.4220  -33.9880 C.3   130  ARG130      0.2205
     35  NE       -36.1440  -84.3500  -34.9460 N.pl3 130  ARG130     -0.0865
     36  CZ       -35.2770  -83.9600  -35.8740 C.cat 130  ARG130      0.5346
     37  NH1      -34.1000  -84.5610  -35.9770 N.pl3 130  ARG130      0.1354
     38  NH2      -35.5900  -82.9680  -36.6990 N.pl3 130  ARG130      0.1354
     39  N        -36.4100  -91.3530  -29.8340 N.3   132  GLU132     -0.1245
     40  CA       -35.2770  -92.0980  -30.3700 C.3   132  GLU132      0.1567
     41  C        -34.5180  -93.0180  -29.4070 C.2   132  GLU132      0.2260
     42  O        -35.0630  -93.4940  -28.4150 O.2   132  GLU132     -0.2867
     43  CB       -34.2940  -91.1010  -30.9960 C.3   132  GLU132      0.0388
     44  CG       -34.9300  -90.1530  -32.0150 C.3   132  GLU132      0.1160
     45  CD       -33.9580  -89.1100  -32.5590 C.2   132  GLU132      0.3649
     46  OE1      -33.3700  -88.3600  -31.7480 O.co2 132  GLU132     -0.2457
     47  OE2      -33.7900  -89.0430  -33.7990 O.co2 132  GLU132     -0.2457
     48  N        -28.5810  -81.9200  -23.9350 N.3   139  LEU139     -0.1231
     49  CA       -28.3530  -80.9650  -25.0530 C.3   139  LEU139      0.1693
     50  C        -27.8290  -81.5460  -26.3610 C.2   139  LEU139      0.2592
     51  O        -27.5930  -80.8060  -27.3190 O.2   139  LEU139     -0.2718
     52  CB       -27.3930  -79.8340  -24.6570 C.3   139  LEU139      0.0284
     53  CG       -27.6790  -79.1340  -23.3480 C.3   139  LEU139      0.0019
     54  CD1      -26.4910  -78.2640  -23.0290 C.3   139  LEU139      0.0001
     55  CD2      -28.9950  -78.3250  -23.4290 C.3   139  LEU139      0.0001
     56  N        -27.6350  -82.8560  -26.4100 N.am  140  ILE140     -0.1966
     57  CA       -27.0720  -83.4970  -27.5960 C.3   140  ILE140      0.1727
     58  C        -28.0100  -84.5000  -28.2300 C.2   140  ILE140      0.2616
     59  O        -28.0480  -84.6750  -29.4500 O.2   140  ILE140     -0.2715
     60  CB       -25.7890  -84.2180  -27.1910 C.3   140  ILE140      0.0290
     61  CG1      -24.8030  -83.2000  -26.6230 C.3   140  ILE140      0.0022
     62  CG2      -25.2290  -85.0000  -28.3520 C.3   140  ILE140      0.0023
     63  CD1      -23.4820  -83.8060  -26.2580 C.3   140  ILE140      0.0001
     64  N        -28.7650  -85.1620  -27.3730 N.am  141  ARG141     -0.1963
     65  CA       -29.7390  -86.1480  -27.7960 C.3   141  ARG141      0.1729
     66  C        -30.8780  -86.1240  -26.7950 C.2   141  ARG141      0.2616
     67  O        -30.9060  -86.8970  -25.8440 O.2   141  ARG141     -0.2715
     68  CB       -29.1170  -87.5350  -27.8220 C.3   141  ARG141      0.0348
     69  CG       -30.0800  -88.6150  -28.2810 C.3   141  ARG141      0.0492
     70  CD       -29.6350  -89.2220  -29.5840 C.3   141  ARG141      0.2205
     71  NE       -30.0570  -88.4500  -30.7470 N.pl3 141  ARG141     -0.0865
     72  CZ       -29.4070  -88.4320  -31.9080 C.cat 141  ARG141      0.5346
     73  NH1      -28.2910  -89.1370  -32.0610 N.pl3 141  ARG141      0.1354
     74  NH2      -29.8830  -87.7260  -32.9270 N.pl3 141  ARG141      0.1354
     75  N        -31.8160  -85.2190  -27.0040 N.am  142  VAL142     -0.1977
     76  CA       -32.9520  -85.0940  -26.1070 C.3   142  VAL142      0.1596
     77  C        -34.2360  -85.4670  -26.8230 C.2   142  VAL142      0.2287
     78  O        -34.2630  -85.5520  -28.0440 O.2   142  VAL142     -0.2864
     79  CB       -33.0540  -83.6520  -25.5600 C.3   142  VAL142      0.0276
     80  CG1      -31.9190  -83.3870  -24.5710 C.3   142  VAL142      0.0022
     81  CG2      -32.9800  -82.6540  -26.7040 C.3   142  VAL142      0.0022
     82  N        -36.3890  -81.2340  -28.0140 N.3   145  ILE145     -0.1245
     83  CA       -35.3460  -80.3390  -28.4610 C.3   145  ILE145      0.1561
     84  C        -35.9070  -78.9710  -28.1570 C.2   145  ILE145      0.2260
     85  O        -36.7140  -78.4330  -28.9060 O.2   145  ILE145     -0.2867
     86  CB       -35.0960  -80.5130  -29.9660 C.3   145  ILE145      0.0252
     87  CG1      -34.8170  -81.9920  -30.2650 C.3   145  ILE145      0.0019
     88  CG2      -33.9170  -79.6540  -30.4090 C.3   145  ILE145      0.0019
     89  CD1      -34.6830  -82.3140  -31.7460 C.3   145  ILE145      0.0001
     90  N        -34.8390  -75.7240  -31.0110 N.3   148  PHE148     -0.1241
     91  CA       -34.7810  -76.1020  -32.4110 C.3   148  PHE148      0.1605
     92  C        -35.0540  -74.9180  -33.3280 C.2   148  PHE148      0.2264
     93  O        -36.1760  -74.4400  -33.4150 O.2   148  PHE148     -0.2867
     94  CB       -35.8210  -77.1780  -32.6820 C.3   148  PHE148      0.0534
     95  CG       -35.6770  -77.8390  -34.0110 C.ar  148  PHE148     -0.0203
     96  CD1      -34.6660  -78.7600  -34.2340 C.ar  148  PHE148     -0.0042
     97  CD2      -36.5790  -77.5790  -35.0330 C.ar  148  PHE148     -0.0042
     98  CE1      -34.5620  -79.4190  -35.4590 C.ar  148  PHE148     -0.0003
     99  CE2      -36.4790  -78.2350  -36.2610 C.ar  148  PHE148     -0.0003
    100  CZ       -35.4730  -79.1540  -36.4710 C.ar  148  PHE148     -0.0000
    101  N        -35.4420  -73.7970  -36.9770 N.3   150  GLU150     -0.1231
    102  CA       -35.5880  -74.3280  -38.3120 C.3   150  GLU150      0.1699
    103  C        -35.9440  -73.1970  -39.2470 C.2   150  GLU150      0.2592
    104  O        -36.8130  -72.3980  -38.9400 O.2   150  GLU150     -0.2718
    105  CB       -36.6710  -75.4090  -38.3360 C.3   150  GLU150      0.0402
    106  CG       -38.0400  -74.9580  -37.8600 C.3   150  GLU150      0.1161
    107  CD       -39.0550  -76.0870  -37.8490 C.2   150  GLU150      0.3649
    108  OE1      -39.1510  -76.8260  -38.8510 O.co2 150  GLU150     -0.2457
    109  OE2      -39.7700  -76.2360  -36.8390 O.co2 150  GLU150     -0.2457
    110  N        -35.2430  -73.1170  -40.3730 N.am  151  ALA151     -0.1966
    111  CA       -35.4990  -72.0900  -41.3700 C.3   151  ALA151      0.1728
    112  C        -35.9420  -72.8160  -42.6140 C.2   151  ALA151      0.2616
    113  O        -35.4150  -73.8830  -42.9210 O.2   151  ALA151     -0.2715
    114  CB       -34.2460  -71.3100  -41.6590 C.3   151  ALA151      0.0334
    115  N        -36.9190  -72.2470  -43.3160 N.am  152  HIS152     -0.1973
    116  CA       -37.4440  -72.8250  -44.5470 C.3   152  HIS152      0.1656
    117  C        -37.5320  -71.7280  -45.5880 C.2   152  HIS152      0.2291
    118  O        -37.9920  -70.6230  -45.2880 O.2   152  HIS152     -0.2864
    119  CB       -38.8310  -73.3880  -44.3080 C.3   152  HIS152      0.0771
    120  CG       -38.8800  -74.4000  -43.2160 C.ar  152  HIS152      0.0820
    121  ND1      -39.2100  -75.7180  -43.4400 N.ar  152  HIS152     -0.2267
    122  CD2      -38.6360  -74.2910  -41.8930 C.ar  152  HIS152      0.1154
    123  CE1      -39.1700  -76.3780  -42.2980 C.ar  152  HIS152      0.1986
    124  NE2      -38.8240  -75.5350  -41.3440 N.ar  152  HIS152     -0.2212
    125  N        -31.5480  -85.6900  -45.4280 N.3   194  PHE194     -0.1241
    126  CA       -32.8320  -85.4250  -44.8020 C.3   194  PHE194      0.1605
    127  C        -33.8920  -86.1410  -45.6240 C.2   194  PHE194      0.2264
    128  O        -33.9320  -86.0220  -46.8520 O.2   194  PHE194     -0.2867
    129  CB       -33.1190  -83.9150  -44.7720 C.3   194  PHE194      0.0534
    130  CG       -34.3740  -83.5430  -44.0280 C.ar  194  PHE194     -0.0203
    131  CD1      -34.4630  -83.7140  -42.6520 C.ar  194  PHE194     -0.0042
    132  CD2      -35.4750  -83.0290  -44.7040 C.ar  194  PHE194     -0.0042
    133  CE1      -35.6430  -83.3810  -41.9530 C.ar  194  PHE194     -0.0003
    134  CE2      -36.6590  -82.6910  -44.0170 C.ar  194  PHE194     -0.0003
    135  CZ       -36.7410  -82.8680  -42.6410 C.ar  194  PHE194     -0.0000
    136  N        -22.8670  -83.5200  -34.9520 N.3   214  GLN214     -0.1231
    137  CA       -23.5170  -82.7780  -36.0370 C.3   214  GLN214      0.1698
    138  C        -24.1440  -81.5150  -35.4330 C.2   214  GLN214      0.2592
    139  O        -25.1220  -81.5990  -34.6940 O.2   214  GLN214     -0.2718
    140  CB       -24.6100  -83.6360  -36.6600 C.3   214  GLN214      0.0381
    141  CG       -25.1120  -83.1760  -38.0050 C.3   214  GLN214      0.0905
    142  CD       -26.2100  -84.0900  -38.5280 C.2   214  GLN214      0.2608
    143  OE1      -27.3450  -84.0580  -38.0400 O.2   214  GLN214     -0.2717
    144  NE2      -25.8740  -84.9290  -39.5110 N.am  214  GLN214     -0.0878
    145  N        -23.5920  -80.3450  -35.7360 N.am  215  ILE215     -0.1966
    146  CA       -24.1290  -79.1260  -35.1630 C.3   215  ILE215      0.1727
    147  C        -24.9540  -78.2660  -36.0980 C.2   215  ILE215      0.2617
    148  O        -25.2630  -77.1270  -35.7680 O.2   215  ILE215     -0.2715
    149  CB       -23.0230  -78.2540  -34.5610 C.3   215  ILE215      0.0290
    150  CG1      -21.9740  -77.9310  -35.6160 C.3   215  ILE215      0.0022
    151  CG2      -22.3870  -78.9660  -33.3870 C.3   215  ILE215      0.0023
    152  CD1      -20.8500  -77.0550  -35.0870 C.3   215  ILE215      0.0001
    153  N        -25.3240  -78.8030  -37.2540 N.am  216  GLY216     -0.1940
    154  CA       -26.1250  -78.0290  -38.1800 C.3   216  GLY216      0.2014
    155  C        -26.2680  -78.6800  -39.5360 C.2   216  GLY216      0.2639
    156  O        -25.3240  -79.2840  -40.0270 O.2   216  GLY216     -0.2714
    157  N        -27.4440  -78.5680  -40.1460 N.am  217  THR217     -0.1950
    158  CA       -27.6650  -79.1440  -41.4630 C.3   217  THR217      0.1897
    159  C        -28.4600  -78.2100  -42.3550 C.2   217  THR217      0.2313
    160  O        -29.3110  -77.4580  -41.8850 O.2   217  THR217     -0.2863
    161  CB       -28.4300  -80.4690  -41.3900 C.3   217  THR217      0.1794
    162  OG1      -29.6830  -80.2570  -40.7290 O.3   217  THR217     -0.2208
    163  CG2      -27.6210  -81.5130  -40.6320 C.3   217  THR217      0.0378
    164  N        -30.5450  -78.3930  -46.1090 N.3   219  HIS219     -0.1241
    165  CA       -31.0710  -79.3590  -47.0600 C.3   219  HIS219      0.1621
    166  C        -31.6690  -78.6730  -48.2640 C.2   219  HIS219      0.2264
    167  O        -32.3070  -77.6330  -48.1420 O.2   219  HIS219     -0.2867
    168  CB       -32.1690  -80.2020  -46.4180 C.3   219  HIS219      0.0745
    169  CG       -31.8290  -80.6950  -45.0510 C.ar  219  HIS219      0.0817
    170  ND1      -30.8390  -81.6240  -44.8200 N.ar  219  HIS219     -0.2268
    171  CD2      -32.3460  -80.3830  -43.8420 C.ar  219  HIS219      0.1154
    172  CE1      -30.7640  -81.8640  -43.5230 C.ar  219  HIS219      0.1986
    173  NE2      -31.6660  -81.1250  -42.9060 N.ar  219  HIS219     -0.2212
    174  N        -34.2470  -75.9010  -46.5940 N.3   247  CYS247     -0.1221
    175  CA       -34.4930  -75.7160  -45.1690 C.3   247  CYS247      0.1808
    176  C        -33.2210  -76.0830  -44.4380 C.2   247  CYS247      0.2601
    177  O        -32.4480  -76.8980  -44.9240 O.2   247  CYS247     -0.2717
    178  CB       -35.6560  -76.5920  -44.6870 C.3   247  CYS247      0.0970
    179  SG       -35.3380  -78.3690  -44.6040 S.3   247  CYS247     -0.0800
    180  N        -32.9960  -75.4690  -43.2810 N.am  248  TYR248     -0.1962
    181  CA       -31.8000  -75.7400  -42.4990 C.3   248  TYR248      0.1771
    182  C        -32.0420  -75.4640  -41.0240 C.2   248  TYR248      0.2620
    183  O        -32.8790  -74.6370  -40.6780 O.2   248  TYR248     -0.2715
    184  CB       -30.6350  -74.9070  -43.0380 C.3   248  TYR248      0.0574
    185  CG       -31.0150  -73.5380  -43.5550 C.ar  248  TYR248     -0.0198
    186  CD1      -30.7260  -72.3850  -42.8170 C.ar  248  TYR248     -0.0009
    187  CD2      -31.6410  -73.3840  -44.7950 C.ar  248  TYR248     -0.0009
    188  CE1      -31.0450  -71.1140  -43.3010 C.ar  248  TYR248      0.0417
    189  CE2      -31.9670  -72.1140  -45.2900 C.ar  248  TYR248      0.0417
    190  CZ       -31.6630  -70.9840  -44.5370 C.ar  248  TYR248      0.1957
    191  OH       -31.9490  -69.7230  -45.0230 O.3   248  TYR248     -0.2866
    192  N        -31.3210  -76.1620  -40.1500 N.am  249  GLY249     -0.1940
    193  CA       -31.5390  -75.9580  -38.7310 C.3   249  GLY249      0.2014
    194  C        -30.4140  -76.2890  -37.7710 C.2   249  GLY249      0.2639
    195  O        -29.4470  -76.9390  -38.1310 O.2   249  GLY249     -0.2714
    196  N        -30.5690  -75.8300  -36.5330 N.am  250  LEU250     -0.1963
    197  CA       -29.6020  -76.0280  -35.4630 C.3   250  LEU250      0.1728
    198  C        -30.4210  -76.4290  -34.2560 C.2   250  LEU250      0.2617
    199  O        -31.6350  -76.2710  -34.2650 O.2   250  LEU250     -0.2715
    200  CB       -28.9100  -74.7130  -35.1130 C.3   250  LEU250      0.0311
    201  CG       -28.4820  -73.7920  -36.2420 C.3   250  LEU250      0.0022
    202  CD1      -28.1120  -72.4300  -35.6860 C.3   250  LEU250      0.0001
    203  CD2      -27.3210  -74.4280  -36.9720 C.3   250  LEU250      0.0001
    204  N        -29.7630  -76.9190  -33.2080 N.am  251  SER251     -0.1936
    205  CA       -30.4780  -77.2920  -31.9960 C.3   251  SER251      0.2055
    206  C        -29.6840  -76.8770  -30.7680 C.2   251  SER251      0.2643
    207  O        -28.7290  -76.1160  -30.8600 O.2   251  SER251     -0.2714
    208  CB       -30.7080  -78.7940  -31.9520 C.3   251  SER251      0.2130
    209  OG       -29.5470  -79.4610  -31.4880 O.3   251  SER251     -0.2179
    210  N        -30.0890  -77.3930  -29.6190 N.am  252  ASP252     -0.1957
    211  CA       -29.4180  -77.1130  -28.3620 C.3   252  ASP252      0.1840
    212  C        -27.9510  -77.5470  -28.4520 C.2   252  ASP252      0.2621
    213  O        -27.1210  -77.1440  -27.6280 O.2   252  ASP252     -0.2715
    214  CB       -30.1150  -77.8790  -27.2470 C.3   252  ASP252      0.1450
    215  CG       -31.6110  -77.6280  -27.2210 C.2   252  ASP252      0.3671
    216  OD1      -32.0690  -76.8660  -26.3440 O.co2 252  ASP252     -0.2456
    217  OD2      -32.3290  -78.1830  -28.0820 O.co2 252  ASP252     -0.2456
    218  N        -27.6390  -78.3730  -29.4520 N.am  253  ARG253     -0.1977
    219  CA       -26.2750  -78.8480  -29.6480 C.3   253  ARG253      0.1597
    220  C        -25.3140  -77.6970  -29.8010 C.2   253  ARG253      0.2287
    221  O        -24.1600  -77.7820  -29.4020 O.2   253  ARG253     -0.2864
    222  CB       -26.1840  -79.7520  -30.8630 C.3   253  ARG253      0.0334
    223  CG       -26.6420  -81.1640  -30.5680 C.3   253  ARG253      0.0492
    224  CD       -26.6020  -82.0070  -31.8140 C.3   253  ARG253      0.2205
    225  NE       -26.9360  -83.3930  -31.5320 N.pl3 253  ARG253     -0.0865
    226  CZ       -26.9650  -84.3500  -32.4530 C.cat 253  ARG253      0.5346
    227  NH1      -26.6780  -84.0670  -33.7180 N.pl3 253  ARG253      0.1354
    228  NH2      -27.2900  -85.5890  -32.1110 N.pl3 253  ARG253      0.1354
@<TRIPOS>BOND
     1   166   167    2
     2   166   165    1
     3   165   168    1
     4   165   164    1
     5   128   127    2
     6   174   175    1
     7   168   169    1
     8   127   126    1
     9   117   118    2
    10   117   116    1
    11   125   126    1
    12   189   187   ar
    13   189   190   ar
    14   175   178    1
    15   175   176    1
    16   169   170   ar
    17   169   171   ar
    18   191   190    1
    19   177   176    2
    20   170   172   ar
    21   126   129    1
    22   187   185   ar
    23   129   130    1
    24   132   130   ar
    25   132   134   ar
    26   178   179    1
    27   116   119    1
    28   116   115    1
    29   190   188   ar
    30   176   180   am
    31   119   120    1
    32   130   131   ar
    33   134   135   ar
    34    24    23    1
    35    24    25    1
    36    22    21    2
    37   171   173   ar
    38    23    20    1
    39   185   184    1
    40   185   186   ar
    41   172   173   ar
    42   121   120   ar
    43   121   123   ar
    44   115   112   am
    45   188   186   ar
    46   180   181    1
    47   120   122   ar
    48    21    20    1
    49   184   181    1
    50    20    19    1
    51   113   112    2
    52    25    27   ar
    53    25    26   ar
    54   131   133   ar
    55   135   133   ar
    56   112   111    1
    57   181   182    1
    58   159   160    2
    59   159   158    1
    60   123   124   ar
    61   122   124   ar
    62   114   111    1
    63   158   161    1
    64   158   157    1
    65   161   162    1
    66   161   163    1
    67   111   110    1
    68   182   183    2
    69   182   192   am
    70     9     7   ar
    71     9    11   ar
    72   110   103   am
    73     7     6   ar
    74   192   193    1
    75   157   155   am
    76     1     2    1
    77   156   155    2
    78   155   154    1
    79   144   142   am
    80    11    10   ar
    81    17    16    1
    82    18    16    1
    83   103   104    2
    84   103   102    1
    85   108   107   ar
    86     6     5    1
    87     6     8   ar
    88   193   194    1
    89     2     5    1
    90     2     3    1
    91   142   143    2
    92   142   141    1
    93    16    13    1
    94   105   102    1
    95   105   106    1
    96   102   101    1
    97    15    14    2
    98    10     8   ar
    99    14    13    1
   100   154   153    1
   101     3     4    2
   102   195   194    2
   103   141   140    1
   104   106   107    1
   105   107   109   ar
   106   194   196   am
   107    13    12    1
   108   153   147   am
   109   203   201    1
   110    38    36    1
   111   140   137    1
   112   196   197    1
   113   100    99   ar
   114   100    98   ar
   115    99    97   ar
   116   201   202    1
   117   201   200    1
   118   147   148    2
   119   147   146    1
   120   137   138    1
   121   137   136    1
   122    37    36    1
   123    36    35    2
   124   145   138   am
   125   145   146    1
   126   150   152    1
   127   150   149    1
   128   197   200    1
   129   197   198    1
   130    98    96   ar
   131   138   139    2
   132   146   149    1
   133    97    95   ar
   134    35    34    1
   135   149   151    1
   136   199   198    2
   137   198   204   am
   138    96    95   ar
   139    95    94    1
   140    34    33    1
   141    47    45   ar
   142   227   226    1
   143    93    92    2
   144    92    91    1
   145    33    32    1
   146   204   205    1
   147    74    72    1
   148    94    91    1
   149    45    44    1
   150    45    46   ar
   151   226   228    1
   152   226   225    2
   153    91    90    1
   154    32    29    1
   155    73    72    1
   156    44    43    1
   157   205   208    1
   158   205   206    1
   159   208   209    1
   160    72    71    2
   161   224   225    1
   162   224   223    1
   163    89    87    1
   164    29    28    1
   165    29    30    1
   166    43    40    1
   167   222   223    1
   168   222   219    1
   169   207   206    2
   170   206   210   am
   171    71    70    1
   172    30    31    2
   173    88    86    1
   174    40    39    1
   175    40    41    1
   176    87    86    1
   177    86    83    1
   178   220   219    1
   179   220   221    2
   180   219   218    1
   181   210   211    1
   182    70    69    1
   183   218   212   am
   184    59    58    2
   185    41    42    2
   186    85    84    2
   187    83    84    1
   188    83    82    1
   189   212   211    1
   190   212   213    2
   191   211   214    1
   192    62    60    1
   193    69    68    1
   194    58    57    1
   195    58    64   am
   196   217   215   ar
   197    78    77    2
   198    68    65    1
   199    65    64    1
   200    65    66    1
   201    57    60    1
   202    57    56    1
   203    51    50    2
   204   214   215    1
   205   215   216   ar
   206    60    61    1
   207    75    66   am
   208    75    76    1
   209    77    76    1
   210    66    67    2
   211    81    79    1
   212    61    63    1
   213    56    50   am
   214    50    49    1
   215    76    79    1
   216    79    80    1
   217    49    52    1
   218    49    48    1
   219    52    53    1
   220    55    53    1
   221    53    54    1
