@<TRIPOS>MOLECULE
tmp/1nj6A00.pdb
 223 215 0 0 0
SMALL
GASTEIGER

@<TRIPOS>ATOM
      1  N        -39.6120  -90.5870  -40.2070 N.3    75  PHE75      -0.1241
      2  CA       -39.9690  -90.2530  -38.8270 C.3    75  PHE75       0.1605
      3  C        -41.0820  -91.1610  -38.2800 C.2    75  PHE75       0.2264
      4  O        -41.5950  -90.9430  -37.1810 O.2    75  PHE75      -0.2867
      5  CB       -40.3930  -88.7770  -38.7220 C.3    75  PHE75       0.0534
      6  CG       -39.2850  -87.7940  -39.0360 C.ar   75  PHE75      -0.0203
      7  CD1      -39.0940  -87.3230  -40.3390 C.ar   75  PHE75      -0.0042
      8  CD2      -38.4190  -87.3530  -38.0300 C.ar   75  PHE75      -0.0042
      9  CE1      -38.0500  -86.4230  -40.6360 C.ar   75  PHE75      -0.0003
     10  CE2      -37.3730  -86.4550  -38.3160 C.ar   75  PHE75      -0.0003
     11  CZ       -37.1900  -85.9910  -39.6190 C.ar   75  PHE75      -0.0000
     12  N        -40.1330  -81.8380  -36.7680 N.3    99  THR99      -0.1218
     13  CA       -39.5520  -80.7950  -37.5910 C.3    99  THR99       0.1862
     14  C        -40.8310  -80.2640  -38.2290 C.2    99  THR99       0.2287
     15  O        -41.8220  -80.9820  -38.2590 O.2    99  THR99      -0.2866
     16  CB       -38.5720  -81.3700  -38.6340 C.3    99  THR99       0.1770
     17  OG1      -38.1330  -80.3110  -39.4900 O.3    99  THR99      -0.2211
     18  CG2      -39.2280  -82.4640  -39.4610 C.3    99  THR99       0.0375
     19  N        -41.8170  -79.2470  -41.5730 N.3   101  GLU101     -0.1245
     20  CA       -42.1770  -79.2400  -42.9900 C.3   101  GLU101      0.1567
     21  C        -43.6570  -79.5100  -43.2010 C.2   101  GLU101      0.2260
     22  O        -44.3390  -78.7610  -43.8900 O.2   101  GLU101     -0.2867
     23  CB       -41.3820  -80.2860  -43.7810 C.3   101  GLU101      0.0388
     24  CG       -39.9270  -79.9560  -44.0370 C.3   101  GLU101      0.1160
     25  CD       -39.1000  -80.0130  -42.7830 C.2   101  GLU101      0.3649
     26  OE1      -39.4540  -80.7900  -41.8770 O.co2 101  GLU101     -0.2457
     27  OE2      -38.0870  -79.2950  -42.7080 O.co2 101  GLU101     -0.2457
     28  N        -38.6510  -85.7770  -30.6620 N.3   130  ARG130     -0.1245
     29  CA       -38.1840  -86.9390  -31.4030 C.3   130  ARG130      0.1563
     30  C        -37.9570  -88.1290  -30.4960 C.2   130  ARG130      0.2260
     31  O        -37.1080  -88.0940  -29.6120 O.2   130  ARG130     -0.2867
     32  CB       -36.8930  -86.6060  -32.1580 C.3   130  ARG130      0.0307
     33  CG       -37.1130  -85.6140  -33.2820 C.3   130  ARG130      0.0489
     34  CD       -35.8490  -85.2870  -34.0280 C.3   130  ARG130      0.2205
     35  NE       -36.0850  -84.1870  -34.9560 N.pl3 130  ARG130     -0.0865
     36  CZ       -35.2090  -83.7560  -35.8580 C.cat 130  ARG130      0.5346
     37  NH1      -34.0230  -84.3360  -35.9630 N.pl3 130  ARG130      0.1354
     38  NH2      -35.5150  -82.7370  -36.6530 N.pl3 130  ARG130      0.1354
     39  N        -36.3680  -91.2580  -29.9600 N.3   132  GLU132     -0.1245
     40  CA       -35.2220  -91.9850  -30.5010 C.3   132  GLU132      0.1567
     41  C        -34.4250  -92.8230  -29.5020 C.2   132  GLU132      0.2260
     42  O        -34.9160  -93.1930  -28.4340 O.2   132  GLU132     -0.2867
     43  CB       -34.2600  -90.9890  -31.1610 C.3   132  GLU132      0.0388
     44  CG       -34.8760  -90.0750  -32.2140 C.3   132  GLU132      0.1160
     45  CD       -33.8870  -89.0400  -32.7410 C.2   132  GLU132      0.3649
     46  OE1      -33.3430  -88.2680  -31.9200 O.co2 132  GLU132     -0.2457
     47  OE2      -33.6590  -89.0000  -33.9720 O.co2 132  GLU132     -0.2457
     48  N        -28.5240  -81.6760  -24.0370 N.3   139  LEU139     -0.1231
     49  CA       -28.2490  -80.7330  -25.1140 C.3   139  LEU139      0.1693
     50  C        -27.7270  -81.3790  -26.3930 C.2   139  LEU139      0.2592
     51  O        -27.4780  -80.6810  -27.3760 O.2   139  LEU139     -0.2718
     52  CB       -27.2120  -79.6990  -24.6650 C.3   139  LEU139      0.0284
     53  CG       -27.4700  -78.8420  -23.4320 C.3   139  LEU139      0.0019
     54  CD1      -26.2230  -78.0290  -23.1190 C.3   139  LEU139      0.0001
     55  CD2      -28.6560  -77.9280  -23.6770 C.3   139  LEU139      0.0001
     56  N        -27.5580  -82.6950  -26.3980 N.am  140  ILE140     -0.1966
     57  CA       -27.0080  -83.3560  -27.5690 C.3   140  ILE140      0.1727
     58  C        -27.9510  -84.3380  -28.2200 C.2   140  ILE140      0.2616
     59  O        -27.9790  -84.4720  -29.4380 O.2   140  ILE140     -0.2715
     60  CB       -25.7140  -84.0790  -27.1950 C.3   140  ILE140      0.0290
     61  CG1      -24.7050  -83.0540  -26.6940 C.3   140  ILE140      0.0022
     62  CG2      -25.1710  -84.8400  -28.3850 C.3   140  ILE140      0.0023
     63  CD1      -23.3960  -83.6510  -26.2720 C.3   140  ILE140      0.0001
     64  N        -28.7100  -85.0400  -27.3990 N.am  141  ARG141     -0.1963
     65  CA       -29.6620  -86.0090  -27.8900 C.3   141  ARG141      0.1729
     66  C        -30.7990  -86.0100  -26.8950 C.2   141  ARG141      0.2616
     67  O        -30.7870  -86.7600  -25.9260 O.2   141  ARG141     -0.2715
     68  CB       -29.0230  -87.3880  -27.9470 C.3   141  ARG141      0.0348
     69  CG       -29.9780  -88.4900  -28.3390 C.3   141  ARG141      0.0492
     70  CD       -29.5120  -89.1430  -29.6080 C.3   141  ARG141      0.2205
     71  NE       -29.9320  -88.4070  -30.7950 N.pl3 141  ARG141     -0.0865
     72  CZ       -29.2440  -88.3790  -31.9330 C.cat 141  ARG141      0.5346
     73  NH1      -28.0940  -89.0340  -32.0330 N.pl3 141  ARG141      0.1354
     74  NH2      -29.7160  -87.7140  -32.9810 N.pl3 141  ARG141      0.1354
     75  N        -31.7780  -85.1540  -27.1340 N.am  142  VAL142     -0.1977
     76  CA       -32.9110  -85.0410  -26.2330 C.3   142  VAL142      0.1596
     77  C        -34.1980  -85.4200  -26.9360 C.2   142  VAL142      0.2287
     78  O        -34.2420  -85.5070  -28.1590 O.2   142  VAL142     -0.2864
     79  CB       -33.0260  -83.6000  -25.6770 C.3   142  VAL142      0.0276
     80  CG1      -31.8700  -83.3150  -24.7240 C.3   142  VAL142      0.0022
     81  CG2      -32.9930  -82.6010  -26.8170 C.3   142  VAL142      0.0022
     82  N        -36.3180  -81.1660  -28.0380 N.3   145  ILE145     -0.1245
     83  CA       -35.2690  -80.2570  -28.4480 C.3   145  ILE145      0.1561
     84  C        -35.8610  -78.8960  -28.1580 C.2   145  ILE145      0.2260
     85  O        -36.7220  -78.4220  -28.8870 O.2   145  ILE145     -0.2867
     86  CB       -34.9700  -80.4090  -29.9520 C.3   145  ILE145      0.0252
     87  CG1      -34.7280  -81.8840  -30.2870 C.3   145  ILE145      0.0019
     88  CG2      -33.7380  -79.6010  -30.3260 C.3   145  ILE145      0.0019
     89  CD1      -34.5650  -82.1540  -31.7800 C.3   145  ILE145      0.0001
     90  N        -34.7470  -75.4980  -31.0930 N.3   148  PHE148     -0.1241
     91  CA       -34.6790  -75.9000  -32.4780 C.3   148  PHE148      0.1605
     92  C        -34.9730  -74.7480  -33.4210 C.2   148  PHE148      0.2264
     93  O        -36.1160  -74.3550  -33.5740 O.2   148  PHE148     -0.2867
     94  CB       -35.6960  -77.0020  -32.7150 C.3   148  PHE148      0.0534
     95  CG       -35.5400  -77.6940  -34.0220 C.ar  148  PHE148     -0.0203
     96  CD1      -34.5060  -78.5990  -34.2210 C.ar  148  PHE148     -0.0042
     97  CD2      -36.4400  -77.4640  -35.0550 C.ar  148  PHE148     -0.0042
     98  CE1      -34.3730  -79.2700  -35.4310 C.ar  148  PHE148     -0.0003
     99  CE2      -36.3140  -78.1310  -36.2720 C.ar  148  PHE148     -0.0003
    100  CZ       -35.2780  -79.0360  -36.4570 C.ar  148  PHE148     -0.0000
    101  N        -35.3730  -73.6090  -37.0460 N.3   150  GLU150     -0.1245
    102  CA       -35.5190  -74.1710  -38.3750 C.3   150  GLU150      0.1567
    103  C        -35.9150  -73.0810  -39.3500 C.2   150  GLU150      0.2260
    104  O        -36.8520  -72.3390  -39.0930 O.2   150  GLU150     -0.2867
    105  CB       -36.5720  -75.2820  -38.3670 C.3   150  GLU150      0.0388
    106  CG       -37.9510  -74.8360  -37.9080 C.3   150  GLU150      0.1160
    107  CD       -38.9650  -75.9680  -37.9060 C.2   150  GLU150      0.3649
    108  OE1      -39.0680  -76.6930  -38.9200 O.co2 150  GLU150     -0.2457
    109  OE2      -39.6690  -76.1290  -36.8900 O.co2 150  GLU150     -0.2457
    110  N        -36.8720  -72.0960  -43.4310 N.3   152  HIS152     -0.1241
    111  CA       -37.4470  -72.6710  -44.6370 C.3   152  HIS152      0.1621
    112  C        -37.5280  -71.5780  -45.6760 C.2   152  HIS152      0.2264
    113  O        -38.0270  -70.4930  -45.3930 O.2   152  HIS152     -0.2867
    114  CB       -38.8430  -73.1800  -44.3480 C.3   152  HIS152      0.0745
    115  CG       -38.8860  -74.2350  -43.2980 C.ar  152  HIS152      0.0817
    116  ND1      -39.2080  -75.5440  -43.5740 N.ar  152  HIS152     -0.2268
    117  CD2      -38.6410  -74.1790  -41.9700 C.ar  152  HIS152      0.1154
    118  CE1      -39.1640  -76.2510  -42.4610 C.ar  152  HIS152      0.1986
    119  NE2      -38.8220  -75.4460  -41.4730 N.ar  152  HIS152     -0.2212
    120  N        -31.4430  -85.5950  -45.6570 N.3   194  PHE194     -0.1241
    121  CA       -32.7450  -85.3230  -45.0760 C.3   194  PHE194      0.1605
    122  C        -33.8030  -86.0390  -45.9010 C.2   194  PHE194      0.2264
    123  O        -33.8290  -85.9470  -47.1300 O.2   194  PHE194     -0.2867
    124  CB       -33.0160  -83.8110  -45.0600 C.3   194  PHE194      0.0534
    125  CG       -34.2660  -83.4200  -44.3190 C.ar  194  PHE194     -0.0203
    126  CD1      -34.3230  -83.4900  -42.9330 C.ar  194  PHE194     -0.0042
    127  CD2      -35.3950  -82.9920  -45.0110 C.ar  194  PHE194     -0.0042
    128  CE1      -35.4930  -83.1400  -42.2390 C.ar  194  PHE194     -0.0003
    129  CE2      -36.5690  -82.6400  -44.3320 C.ar  194  PHE194     -0.0003
    130  CZ       -36.6170  -82.7140  -42.9430 C.ar  194  PHE194     -0.0000
    131  N        -22.7690  -83.3630  -35.0750 N.3   214  GLN214     -0.1231
    132  CA       -23.4350  -82.6060  -36.1370 C.3   214  GLN214      0.1698
    133  C        -24.0730  -81.3730  -35.4970 C.2   214  GLN214      0.2592
    134  O        -24.9430  -81.4990  -34.6410 O.2   214  GLN214     -0.2718
    135  CB       -24.5210  -83.4600  -36.7700 C.3   214  GLN214      0.0381
    136  CG       -25.0760  -82.9400  -38.0660 C.3   214  GLN214      0.0905
    137  CD       -26.1430  -83.8710  -38.6220 C.2   214  GLN214      0.2608
    138  OE1      -27.2900  -83.8720  -38.1570 O.2   214  GLN214     -0.2717
    139  NE2      -25.7630  -84.6910  -39.6090 N.am  214  GLN214     -0.0878
    140  N        -23.6470  -80.1820  -35.8970 N.am  215  ILE215     -0.1966
    141  CA       -24.2030  -78.9820  -35.3060 C.3   215  ILE215      0.1727
    142  C        -24.9210  -78.0850  -36.2890 C.2   215  ILE215      0.2617
    143  O        -25.0420  -76.8870  -36.0560 O.2   215  ILE215     -0.2715
    144  CB       -23.1230  -78.1550  -34.6090 C.3   215  ILE215      0.0290
    145  CG1      -22.0250  -77.7860  -35.6010 C.3   215  ILE215      0.0022
    146  CG2      -22.5650  -78.9310  -33.4410 C.3   215  ILE215      0.0023
    147  CD1      -20.9240  -76.9460  -34.9920 C.3   215  ILE215      0.0001
    148  N        -25.4080  -78.6540  -37.3800 N.am  216  GLY216     -0.1940
    149  CA       -26.1160  -77.8500  -38.3570 C.3   216  GLY216      0.2014
    150  C        -26.2700  -78.5580  -39.6830 C.2   216  GLY216      0.2639
    151  O        -25.3690  -79.2680  -40.1100 O.2   216  GLY216     -0.2714
    152  N        -27.4130  -78.3800  -40.3340 N.am  217  THR217     -0.1950
    153  CA       -27.6410  -79.0050  -41.6230 C.3   217  THR217      0.1897
    154  C        -28.4160  -78.0630  -42.5180 C.2   217  THR217      0.2313
    155  O        -29.2330  -77.2750  -42.0450 O.2   217  THR217     -0.2863
    156  CB       -28.4290  -80.3020  -41.4870 C.3   217  THR217      0.1794
    157  OG1      -29.6540  -80.0380  -40.7970 O.3   217  THR217     -0.2208
    158  CG2      -27.6320  -81.3290  -40.7030 C.3   217  THR217      0.0378
    159  N        -30.5200  -78.2830  -46.1960 N.3   219  HIS219     -0.1241
    160  CA       -31.0400  -79.2320  -47.1590 C.3   219  HIS219      0.1621
    161  C        -31.6040  -78.5330  -48.3700 C.2   219  HIS219      0.2264
    162  O        -32.1890  -77.4680  -48.2600 O.2   219  HIS219     -0.2867
    163  CB       -32.1450  -80.0720  -46.5240 C.3   219  HIS219      0.0745
    164  CG       -31.7960  -80.5870  -45.1670 C.ar  219  HIS219      0.0817
    165  ND1      -30.7650  -81.4750  -44.9510 N.ar  219  HIS219     -0.2268
    166  CD2      -32.3150  -80.3080  -43.9480 C.ar  219  HIS219      0.1154
    167  CE1      -30.6630  -81.7200  -43.6560 C.ar  219  HIS219      0.1986
    168  NE2      -31.5920  -81.0240  -43.0260 N.ar  219  HIS219     -0.2212
    169  N        -34.1770  -75.8060  -46.7080 N.3   247  CYS247     -0.1221
    170  CA       -34.4200  -75.5910  -45.2900 C.3   247  CYS247      0.1808
    171  C        -33.1680  -75.9620  -44.5290 C.2   247  CYS247      0.2601
    172  O        -32.4170  -76.8190  -44.9670 O.2   247  CYS247     -0.2717
    173  CB       -35.6140  -76.4240  -44.8050 C.3   247  CYS247      0.0970
    174  SG       -35.3480  -78.1980  -44.6910 S.3   247  CYS247     -0.0800
    175  N        -32.9340  -75.3040  -43.3980 N.am  248  TYR248     -0.1962
    176  CA       -31.7550  -75.5810  -42.5880 C.3   248  TYR248      0.1774
    177  C        -32.0150  -75.3360  -41.1060 C.2   248  TYR248      0.2659
    178  O        -32.9170  -74.5820  -40.7570 O.2   248  TYR248     -0.2711
    179  CB       -30.5830  -74.7400  -43.0870 C.3   248  TYR248      0.0574
    180  CG       -30.9620  -73.3810  -43.6160 C.ar  248  TYR248     -0.0198
    181  CD1      -30.6560  -72.2220  -42.9020 C.ar  248  TYR248     -0.0009
    182  CD2      -31.5910  -73.2430  -44.8510 C.ar  248  TYR248     -0.0009
    183  CE1      -30.9610  -70.9550  -43.4110 C.ar  248  TYR248      0.0417
    184  CE2      -31.9040  -71.9810  -45.3690 C.ar  248  TYR248      0.0417
    185  CZ       -31.5820  -70.8410  -44.6440 C.ar  248  TYR248      0.1957
    186  OH       -31.8560  -69.5860  -45.1580 O.3   248  TYR248     -0.2866
    187  N        -31.2410  -75.9760  -40.2330 N.am  249  GLY249     -0.1716
    188  CA       -31.4710  -75.7930  -38.8100 C.2   249  GLY249      0.1480
    189  C        -30.3730  -76.1880  -37.8370 C.2   249  GLY249      0.2820
    190  O        -29.4840  -76.9530  -38.1650 O.2   249  GLY249     -0.2669
    191  N        -30.4660  -75.6550  -36.6230 N.am  250  LEU250     -0.1929
    192  CA       -29.5170  -75.8910  -35.5430 C.3   250  LEU250      0.1731
    193  C        -30.3460  -76.2750  -34.3380 C.2   250  LEU250      0.2617
    194  O        -31.5650  -76.1470  -34.3680 O.2   250  LEU250     -0.2715
    195  CB       -28.7960  -74.6000  -35.1800 C.3   250  LEU250      0.0311
    196  CG       -28.4360  -73.6670  -36.3210 C.3   250  LEU250      0.0022
    197  CD1      -28.0530  -72.2980  -35.7780 C.3   250  LEU250      0.0001
    198  CD2      -27.3080  -74.3010  -37.1120 C.3   250  LEU250      0.0001
    199  N        -29.6900  -76.7150  -33.2680 N.am  251  SER251     -0.1936
    200  CA       -30.4080  -77.0650  -32.0540 C.3   251  SER251      0.2055
    201  C        -29.6010  -76.6810  -30.8240 C.2   251  SER251      0.2643
    202  O        -28.6480  -75.9150  -30.9120 O.2   251  SER251     -0.2714
    203  CB       -30.7050  -78.5540  -32.0230 C.3   251  SER251      0.2130
    204  OG       -29.5490  -79.2730  -31.6600 O.3   251  SER251     -0.2179
    205  N        -29.9920  -77.2150  -29.6750 N.am  252  ASP252     -0.1957
    206  CA       -29.3010  -76.9300  -28.4280 C.3   252  ASP252      0.1840
    207  C        -27.8530  -77.3700  -28.5380 C.2   252  ASP252      0.2621
    208  O        -27.0040  -76.9260  -27.7640 O.2   252  ASP252     -0.2715
    209  CB       -29.9640  -77.6760  -27.2830 C.3   252  ASP252      0.1450
    210  CG       -31.4630  -77.4890  -27.2640 C.2   252  ASP252      0.3671
    211  OD1      -31.9800  -76.9090  -26.2850 O.co2 252  ASP252     -0.2456
    212  OD2      -32.1260  -77.9230  -28.2300 O.co2 252  ASP252     -0.2456
    213  N        -27.5770  -78.2500  -29.4950 N.am  253  ARG253     -0.1977
    214  CA       -26.2230  -78.7350  -29.7010 C.3   253  ARG253      0.1597
    215  C        -25.2450  -77.5970  -29.8410 C.2   253  ARG253      0.2287
    216  O        -24.1090  -77.6890  -29.4010 O.2   253  ARG253     -0.2864
    217  CB       -26.1520  -79.6200  -30.9290 C.3   253  ARG253      0.0334
    218  CG       -26.6620  -81.0140  -30.6550 C.3   253  ARG253      0.0492
    219  CD       -26.6070  -81.8560  -31.8900 C.3   253  ARG253      0.2205
    220  NE       -26.9210  -83.2460  -31.6010 N.pl3 253  ARG253     -0.0865
    221  CZ       -26.8770  -84.2130  -32.5080 C.cat 253  ARG253      0.5346
    222  NH1      -26.5300  -83.9300  -33.7570 N.pl3 253  ARG253      0.1354
    223  NH2      -27.1850  -85.4550  -32.1670 N.pl3 253  ARG253      0.1354
@<TRIPOS>BOND
     1   161   162    2
     2   161   160    1
     3   160   163    1
     4   160   159    1
     5   123   122    2
     6   169   170    1
     7   163   164    1
     8   122   121    1
     9   112   113    2
    10   112   111    1
    11   120   121    1
    12   184   182   ar
    13   184   185   ar
    14   170   173    1
    15   170   171    1
    16   164   165   ar
    17   164   166   ar
    18   186   185    1
    19   121   124    1
    20   124   125    1
    21   127   129   ar
    22   127   125   ar
    23   172   171    2
    24   165   167   ar
    25   182   180   ar
    26   173   174    1
    27   185   183   ar
    28   111   114    1
    29   111   110    1
    30   171   175   am
    31   114   115    1
    32   129   130   ar
    33   125   126   ar
    34    24    23    1
    35    24    25    1
    36   166   168   ar
    37    22    21    2
    38    23    20    1
    39   167   168   ar
    40   180   179    1
    41   180   181   ar
    42   116   115   ar
    43   116   118   ar
    44   183   181   ar
    45   175   176    1
    46   115   117   ar
    47    21    20    1
    48   179   176    1
    49    20    19    1
    50   130   128   ar
    51   126   128   ar
    52    25    27   ar
    53    25    26   ar
    54   176   177    1
    55   154   155    2
    56   154   153    1
    57   118   119   ar
    58   117   119   ar
    59   153   156    1
    60   153   152    1
    61   156   157    1
    62   156   158    1
    63   177   178    2
    64   177   187    1
    65     9     7   ar
    66     9    11   ar
    67     7     6   ar
    68   152   150   am
    69   187   188    2
    70     1     2    1
    71   151   150    2
    72   150   149    1
    73    11    10   ar
    74   139   137   am
    75    17    16    1
    76    18    16    1
    77   103   104    2
    78   103   102    1
    79     6     5    1
    80     6     8   ar
    81   108   107   ar
    82     2     5    1
    83     2     3    1
    84   188   189    1
    85    16    13    1
    86   137   138    2
    87   137   136    1
    88   102   105    1
    89   102   101    1
    90   105   106    1
    91   149   148    1
    92    10     8   ar
    93     3     4    2
    94    15    14    2
    95    14    13    1
    96   190   189    2
    97   136   135    1
    98   106   107    1
    99   107   109   ar
   100   189   191   am
   101    13    12    1
   102   148   142   am
   103   198   196    1
   104   135   132    1
   105    38    36    1
   106   191   192    1
   107   100    99   ar
   108   100    98   ar
   109   196   197    1
   110   196   195    1
   111   142   143    2
   112   142   141    1
   113    99    97   ar
   114   132   133    1
   115   132   131    1
   116    37    36    1
   117   140   133   am
   118   140   141    1
   119    36    35    2
   120   145   147    1
   121   145   144    1
   122   192   195    1
   123   192   193    1
   124   133   134    2
   125    98    96   ar
   126   141   144    1
   127    97    95   ar
   128    35    34    1
   129   144   146    1
   130   194   193    2
   131   193   199   am
   132    96    95   ar
   133    34    33    1
   134    95    94    1
   135    47    45   ar
   136   222   221    1
   137    93    92    2
   138    92    91    1
   139    33    32    1
   140   199   200    1
   141    74    72    1
   142    45    44    1
   143    45    46   ar
   144    94    91    1
   145   221   223    1
   146   221   220    2
   147    91    90    1
   148    44    43    1
   149    32    29    1
   150   200   203    1
   151   200   201    1
   152    73    72    1
   153   203   204    1
   154    72    71    2
   155   219   220    1
   156   219   218    1
   157    89    87    1
   158    29    28    1
   159    29    30    1
   160    43    40    1
   161   217   218    1
   162   217   214    1
   163   202   201    2
   164   201   205   am
   165    71    70    1
   166    40    39    1
   167    40    41    1
   168    30    31    2
   169    88    86    1
   170    87    86    1
   171    86    83    1
   172   215   214    1
   173   215   216    2
   174   214   213    1
   175   205   206    1
   176    70    69    1
   177    41    42    2
   178   213   207   am
   179    59    58    2
   180    85    84    2
   181   207   206    1
   182   207   208    2
   183    83    84    1
   184    83    82    1
   185   206   209    1
   186    62    60    1
   187    69    68    1
   188   212   210   ar
   189    58    57    1
   190    58    64   am
   191    78    77    2
   192    68    65    1
   193    65    64    1
   194    65    66    1
   195    57    60    1
   196    57    56    1
   197    51    50    2
   198   209   210    1
   199   210   211   ar
   200    60    61    1
   201    75    66   am
   202    75    76    1
   203    77    76    1
   204    66    67    2
   205    81    79    1
   206    61    63    1
   207    56    50   am
   208    50    49    1
   209    76    79    1
   210    79    80    1
   211    49    52    1
   212    49    48    1
   213    52    53    1
   214    55    53    1
   215    53    54    1
