@<TRIPOS>MOLECULE
tmp/1njfD00.pdb
 203 194 0 0 0
SMALL
GASTEIGER

@<TRIPOS>ATOM
      1  N         32.3450   58.8880   48.0290 N.3     3  ALA3       -0.1231
      2  CA        33.3790   57.9480   47.6160 C.3     3  ALA3        0.1694
      3  C         34.7680   58.5850   47.6470 C.2     3  ALA3        0.2591
      4  O         35.7160   57.9690   48.1320 O.2     3  ALA3       -0.2718
      5  CB        33.0780   57.4150   46.2210 C.3     3  ALA3        0.0304
      6  N         34.8930   59.8100   47.1390 N.am    4  ARG4       -0.1980
      7  CA        36.1950   60.4760   47.1300 C.3     4  ARG4        0.1597
      8  C         36.6040   60.9180   48.5250 C.2     4  ARG4        0.2287
      9  O         37.7500   60.7220   48.9350 O.2     4  ARG4       -0.2864
     10  CB        36.1920   61.7000   46.2030 C.3     4  ARG4        0.0334
     11  CG        37.5370   62.4460   46.1700 C.3     4  ARG4        0.0492
     12  CD        38.6630   61.5490   45.6370 C.3     4  ARG4        0.2205
     13  NE        39.9680   61.8540   46.2270 N.pl3   4  ARG4       -0.0865
     14  CZ        40.6490   62.9790   46.0250 C.cat   4  ARG4        0.5346
     15  NH1       40.1610   63.9310   45.2360 N.pl3   4  ARG4        0.1354
     16  NH2       41.8200   63.1590   46.6230 N.pl3   4  ARG4        0.1354
     17  N         35.7510   59.6910   51.3600 N.3     6  TRP6       -0.1227
     18  CA        36.0590   58.5810   52.2490 C.3     6  TRP6        0.1737
     19  C         37.0040   57.5450   51.6640 C.2     6  TRP6        0.2595
     20  O         36.9310   56.3640   51.9990 O.2     6  TRP6       -0.2718
     21  CB        34.7710   57.9100   52.7410 C.3     6  TRP6        0.0564
     22  CG        34.0260   58.7760   53.6990 C.ar    6  TRP6        0.0003
     23  CD1       33.1080   59.7430   53.3890 C.ar    6  TRP6        0.0946
     24  CD2       34.1940   58.8250   55.1210 C.ar    6  TRP6        0.0152
     25  NE1       32.6990   60.3900   54.5290 N.ar    6  TRP6       -0.2442
     26  CE2       33.3480   59.8480   55.6070 C.ar    6  TRP6        0.0810
     27  CE3       34.9810   58.1060   56.0340 C.ar    6  TRP6        0.0012
     28  CZ2       33.2650   60.1680   56.9650 C.ar    6  TRP6        0.0191
     29  CZ3       34.8980   58.4270   57.3870 C.ar    6  TRP6        0.0001
     30  CH2       34.0450   59.4490   57.8380 C.ar    6  TRP6        0.0015
     31  N         37.8940   57.9900   50.7870 N.am    7  ARG7       -0.1966
     32  CA        38.8710   57.0870   50.2010 C.3     7  ARG7        0.1714
     33  C         39.8370   56.7220   51.3280 C.2     7  ARG7        0.2458
     34  O         40.3480   57.5930   52.0290 O.2     7  ARG7       -0.2730
     35  CB        39.6390   57.7790   49.0730 C.3     7  ARG7        0.0347
     36  CG        40.7090   56.9020   48.4290 C.3     7  ARG7        0.0492
     37  CD        41.7090   57.7270   47.6350 C.3     7  ARG7        0.2205
     38  NE        41.1500   58.2550   46.3930 N.pl3   7  ARG7       -0.0865
     39  CZ        41.7430   59.1840   45.6500 C.cat   7  ARG7        0.5346
     40  NH1       42.9110   59.6910   46.0260 N.pl3   7  ARG7        0.1354
     41  NH2       41.1720   59.6010   44.5280 N.pl3   7  ARG7        0.1354
     42  N         40.0860   55.4240   51.5310 N.am    8  PRO8       -0.2727
     43  CA        41.0020   54.9820   52.5910 C.3     8  PRO8        0.1402
     44  C         42.3290   55.7450   52.5280 C.2     8  PRO8        0.2269
     45  O         42.9600   55.8090   51.4720 O.2     8  PRO8       -0.2865
     46  CB        41.1780   53.5000   52.2880 C.3     8  PRO8        0.0296
     47  CG        39.8520   53.1270   51.7070 C.3     8  PRO8        0.0237
     48  CD        39.5490   54.2780   50.7790 C.3     8  PRO8        0.0939
     49  N         42.1400   51.8950   57.5570 N.3    13  ASP13      -0.1225
     50  CA        40.8770   52.4360   57.0650 C.3    13  ASP13       0.1805
     51  C         40.2230   51.5770   55.9910 C.2    13  ASP13       0.2598
     52  O         39.0260   51.7140   55.7190 O.2    13  ASP13      -0.2718
     53  CB        41.0700   53.8430   56.4890 C.3    13  ASP13       0.1424
     54  CG        41.1710   54.9110   57.5570 C.2    13  ASP13       0.3668
     55  OD1       40.7990   54.6380   58.7220 O.co2  13  ASP13      -0.2456
     56  OD2       41.6070   56.0350   57.2200 O.co2  13  ASP13      -0.2456
     57  N         41.0090   50.7120   55.3640 N.am   14  VAL14      -0.1966
     58  CA        40.4910   49.8570   54.3110 C.3    14  VAL14       0.1727
     59  C         39.4840   48.8630   54.8500 C.2    14  VAL14       0.2616
     60  O         39.6640   48.3060   55.9350 O.2    14  VAL14      -0.2715
     61  CB        41.6210   49.0710   53.6190 C.3    14  VAL14       0.0290
     62  CG1       41.0180   48.0180   52.6990 C.3    14  VAL14       0.0023
     63  CG2       42.5150   50.0290   52.8360 C.3    14  VAL14       0.0023
     64  N         38.4250   48.6360   54.0840 N.am   15  VAL15      -0.1977
     65  CA        37.4010   47.6940   54.4930 C.3    15  VAL15       0.1596
     66  C         37.7130   46.2760   54.0090 C.2    15  VAL15       0.2287
     67  O         37.9410   46.0390   52.8180 O.2    15  VAL15      -0.2864
     68  CB        35.9910   48.1140   53.9750 C.3    15  VAL15       0.0276
     69  CG1       34.9770   47.0390   54.2980 C.3    15  VAL15       0.0022
     70  CG2       35.5670   49.4230   54.6180 C.3    15  VAL15       0.0022
     71  N         40.0400   43.6550   53.4980 N.3    17  GLN17      -0.1245
     72  CA        40.8560   42.9790   52.4850 C.3    17  GLN17       0.1566
     73  C         42.1000   42.5240   53.2580 C.2    17  GLN17       0.2260
     74  O         43.2410   42.7020   52.8180 O.2    17  GLN17      -0.2867
     75  CB        41.2340   43.9560   51.3730 C.3    17  GLN17       0.0367
     76  CG        41.0920   43.4050   49.9600 C.3    17  GLN17       0.0905
     77  CD        39.6510   43.1320   49.5560 C.2    17  GLN17       0.2608
     78  OE1       39.2180   41.9880   49.5200 O.2    17  GLN17      -0.2717
     79  NE2       38.9070   44.1860   49.2480 N.am   17  GLN17      -0.0878
     80  N         34.8780   45.2130   40.5870 N.3    43  ARG43      -0.1231
     81  CA        34.8410   46.6600   40.6150 C.3    43  ARG43       0.1694
     82  C         34.4210   47.2330   41.9820 C.2    43  ARG43       0.2593
     83  O         33.5470   46.6940   42.6580 O.2    43  ARG43      -0.2718
     84  CB        33.8610   47.1410   39.5280 C.3    43  ARG43       0.0321
     85  CG        34.1240   48.5290   38.9690 C.3    43  ARG43       0.0489
     86  CD        34.6450   48.4770   37.5340 C.3    43  ARG43       0.2205
     87  NE        35.1380   49.7760   37.0880 N.pl3  43  ARG43      -0.0865
     88  CZ        35.7020   50.0040   35.9050 C.cat  43  ARG43       0.5346
     89  NH1       35.8460   49.0190   35.0280 N.pl3  43  ARG43       0.1354
     90  NH2       36.1400   51.2190   35.6040 N.pl3  43  ARG43       0.1354
     91  N         35.0660   48.3250   42.3740 N.am   44  GLY44      -0.1942
     92  CA        34.7390   49.0020   43.6160 C.3    44  GLY44       0.2014
     93  C         35.0130   48.3040   44.9320 C.2    44  GLY44       0.2639
     94  O         34.3620   48.6090   45.9390 O.2    44  GLY44      -0.2714
     95  N         35.9720   47.3800   44.9550 N.am   45  VAL45      -0.1963
     96  CA        36.2840   46.6740   46.1970 C.3    45  VAL45       0.1727
     97  C         37.5660   47.1580   46.8700 C.2    45  VAL45       0.2617
     98  O         37.9410   46.6670   47.9410 O.2    45  VAL45      -0.2715
     99  CB        36.3720   45.1500   45.9870 C.3    45  VAL45       0.0290
    100  CG1       35.0950   44.6530   45.3360 C.3    45  VAL45       0.0023
    101  CG2       37.5930   44.7850   45.1450 C.3    45  VAL45       0.0023
    102  N         38.2300   48.1260   46.2450 N.am   46  GLY46      -0.1940
    103  CA        39.4400   48.6770   46.8290 C.3    46  GLY46       0.2014
    104  C         40.7790   48.4960   46.1370 C.2    46  GLY46       0.2639
    105  O         41.8040   48.7730   46.7490 O.2    46  GLY46      -0.2714
    106  N         40.7870   48.0550   44.8820 N.am   47  LYS47      -0.1963
    107  CA        42.0410   47.8410   44.1590 C.3    47  LYS47       0.1728
    108  C         42.9330   49.0730   44.0930 C.2    47  LYS47       0.2617
    109  O         44.0860   49.0300   44.5240 O.2    47  LYS47      -0.2715
    110  CB        41.7780   47.3170   42.7300 C.3    47  LYS47       0.0311
    111  CG        41.1810   45.9030   42.6880 C.3    47  LYS47       0.0038
    112  CD        41.0440   45.3400   41.2640 C.3    47  LYS47       0.0206
    113  CE        40.0920   46.1650   40.4110 C.3    47  LYS47       0.1093
    114  NZ        38.7450   46.2480   41.0180 N.3    47  LYS47      -0.1314
    115  N         42.4210   50.1780   43.5690 N.am   48  THR48      -0.1937
    116  CA        43.2570   51.3680   43.4670 C.3    48  THR48       0.2028
    117  C         43.4700   52.0850   44.8060 C.2    48  THR48       0.2642
    118  O         44.4820   52.7610   45.0000 O.2    48  THR48      -0.2714
    119  CB        42.7130   52.3340   42.3870 C.3    48  THR48       0.1808
    120  OG1       41.2920   52.4440   42.5060 O.3    48  THR48      -0.2208
    121  CG2       43.0450   51.8040   40.9970 C.3    48  THR48       0.0379
    122  N         42.5300   51.9390   45.7330 N.am   49  SER49      -0.1949
    123  CA        42.6900   52.5510   47.0540 C.3    49  SER49       0.1924
    124  C         43.9290   51.9460   47.7440 C.2    49  SER49       0.2314
    125  O         44.7810   52.6620   48.2720 O.2    49  SER49      -0.2863
    126  CB        41.4540   52.2840   47.9140 C.3    49  SER49       0.2116
    127  OG        40.3450   53.0140   47.4370 O.3    49  SER49      -0.2180
    128  N         45.6690   51.4520   35.8510 N.3   122  ASP122     -0.1225
    129  CA        44.3480   50.9030   36.0890 C.3   122  ASP122      0.1805
    130  C         43.8410   50.1390   34.8750 C.2   122  ASP122      0.2597
    131  O         44.0560   50.5620   33.7390 O.2   122  ASP122     -0.2718
    132  CB        43.3570   52.0180   36.4120 C.3   122  ASP122      0.1424
    133  CG        42.0510   51.4800   36.9730 C.2   122  ASP122      0.3668
    134  OD1       41.0400   52.2170   36.9770 O.co2 122  ASP122     -0.2456
    135  OD2       42.0400   50.3090   37.4210 O.co2 122  ASP122     -0.2456
    136  N         43.1560   49.0250   35.1210 N.am  123  GLU123     -0.1979
    137  CA        42.6290   48.1990   34.0400 C.3   123  GLU123      0.1602
    138  C         43.7370   47.9610   33.0150 C.2   123  GLU123      0.2287
    139  O         43.5630   48.2190   31.8180 O.2   123  GLU123     -0.2864
    140  CB        41.4270   48.8900   33.3770 C.3   123  GLU123      0.0415
    141  CG        40.1620   48.9670   34.2480 C.3   123  GLU123      0.1163
    142  CD        39.6060   47.5980   34.6220 C.2   123  GLU123      0.3649
    143  OE1       38.4220   47.3270   34.3280 O.co2 123  GLU123     -0.2457
    144  OE2       40.3470   46.7900   35.2170 O.co2 123  GLU123     -0.2457
    145  N         40.1660   44.2130   36.4600 N.3   153  THR153     -0.1218
    146  CA        38.9030   43.5450   36.7660 C.3   153  THR153      0.1862
    147  C         38.9190   42.1510   36.1660 C.2   153  THR153      0.2287
    148  O         38.1000   41.3060   36.5310 O.2   153  THR153     -0.2866
    149  CB        37.6880   44.2780   36.1480 C.3   153  THR153      0.1770
    150  OG1       38.0770   44.9100   34.9190 O.3   153  THR153     -0.2211
    151  CG2       37.1350   45.3020   37.1140 C.3   153  THR153      0.0375
    152  N         41.5830   40.6190   45.4010 N.3   171  LEU171     -0.1245
    153  CA        40.6620   41.2950   46.3110 C.3   171  LEU171      0.1561
    154  C         39.2760   40.6410   46.2530 C.2   171  LEU171      0.2260
    155  O         38.8110   40.1980   45.1940 O.2   171  LEU171     -0.2867
    156  CB        40.5330   42.7810   45.9600 C.3   171  LEU171      0.0270
    157  CG        41.6630   43.8170   46.1150 C.3   171  LEU171      0.0019
    158  CD1       41.1710   44.8990   47.0570 C.3   171  LEU171      0.0001
    159  CD2       42.9670   43.2160   46.6100 C.3   171  LEU171      0.0001
    160  N         32.9520   42.7780   48.7490 N.3   174  LEU174     -0.1245
    161  CA        32.5970   42.9880   50.1440 C.3   174  LEU174      0.1561
    162  C         31.2430   42.4190   50.5630 C.2   174  LEU174      0.2260
    163  O         30.2930   42.3980   49.7810 O.2   174  LEU174     -0.2867
    164  CB        32.6470   44.4850   50.4790 C.3   174  LEU174      0.0270
    165  CG        34.0140   45.1890   50.5690 C.3   174  LEU174      0.0019
    166  CD1       34.9950   44.2860   51.3030 C.3   174  LEU174      0.0001
    167  CD2       34.5510   45.5340   49.1900 C.3   174  LEU174      0.0001
    168  N         30.1910   49.9210   57.0310 N.3   182  GLN182     -0.1245
    169  CA        30.9290   51.0880   56.5550 C.3   182  GLN182      0.1566
    170  C         29.9920   52.2760   56.2480 C.2   182  GLN182      0.2260
    171  O         30.3340   53.4350   56.5030 O.2   182  GLN182     -0.2867
    172  CB        31.7500   50.7180   55.3150 C.3   182  GLN182      0.0367
    173  CG        32.5970   51.8810   54.7730 C.3   182  GLN182      0.0905
    174  CD        33.8290   52.1810   55.6470 C.2   182  GLN182      0.2608
    175  OE1       33.8900   51.7480   56.7960 O.2   182  GLN182     -0.2717
    176  NE2       34.7980   52.9230   55.0960 N.am  182  GLN182     -0.0878
    177  N         31.6530   48.5510   47.2120 N.3   210  LEU210     -0.1231
    178  CA        31.5790   49.5870   48.2180 C.3   210  LEU210      0.1693
    179  C         31.5320   50.9660   47.5700 C.2   210  LEU210      0.2591
    180  O         31.0880   51.9260   48.1910 O.2   210  LEU210     -0.2718
    181  CB        32.7640   49.4620   49.1750 C.3   210  LEU210      0.0284
    182  CG        32.7560   50.3090   50.4460 C.3   210  LEU210      0.0019
    183  CD1       31.3670   50.3370   51.0940 C.3   210  LEU210      0.0001
    184  CD2       33.7830   49.7370   51.4000 C.3   210  LEU210      0.0001
    185  N         31.9650   51.0590   46.3160 N.am  211  ARG211     -0.1980
    186  CA        31.9490   52.3250   45.5800 C.3   211  ARG211      0.1597
    187  C         30.5020   52.6470   45.2090 C.2   211  ARG211      0.2287
    188  O         30.0160   53.7550   45.4480 O.2   211  ARG211     -0.2864
    189  CB        32.7810   52.2080   44.2960 C.3   211  ARG211      0.0334
    190  CG        33.3310   53.5260   43.7410 C.3   211  ARG211      0.0492
    191  CD        32.2650   54.5070   43.2760 C.3   211  ARG211      0.2205
    192  NE        32.8690   55.7520   42.7950 N.pl3 211  ARG211     -0.0865
    193  CZ        32.1870   56.8270   42.4020 C.cat 211  ARG211      0.5346
    194  NH1       30.8590   56.8250   42.4280 N.pl3 211  ARG211      0.1354
    195  NH2       32.8340   57.9100   41.9820 N.pl3 211  ARG211      0.1354
    196  N         28.4440   53.6970   48.1280 N.3   214  LEU214     -0.1245
    197  CA        28.6110   55.0870   48.5270 C.3   214  LEU214      0.1561
    198  C         27.9250   56.0170   47.5360 C.2   214  LEU214      0.2260
    199  O         27.4000   57.0680   47.9110 O.2   214  LEU214     -0.2867
    200  CB        30.0960   55.4340   48.6460 C.3   214  LEU214      0.0270
    201  CG        30.7820   54.7770   49.8430 C.3   214  LEU214      0.0019
    202  CD1       32.2740   55.0630   49.8020 C.3   214  LEU214      0.0001
    203  CD2       30.1660   55.3090   51.1350 C.3   214  LEU214      0.0001
@<TRIPOS>BOND
     1   139   138    2
     2   138   137    1
     3   140   137    1
     4   140   141    1
     5   131   130    2
     6   137   136    1
     7   141   142    1
     8   143   142   ar
     9   142   144   ar
    10   130   136   am
    11   130   129    1
    12   150   149    1
    13    89    88    1
    14    90    88    1
    15   128   129    1
    16    88    87    2
    17   129   132    1
    18   149   146    1
    19   149   151    1
    20   147   148    2
    21   147   146    1
    22   132   133    1
    23   145   146    1
    24   133   134   ar
    25   133   135   ar
    26    87    86    1
    27    86    85    1
    28    85    84    1
    29    84    81    1
    30   113   114    1
    31   113   112    1
    32    80    81    1
    33    81    82    1
    34   121   119    1
    35   112   111    1
    36    82    91   am
    37    82    83    2
    38   195   193    1
    39    91    92    1
    40   119   120    1
    41   119   116    1
    42   193   194    1
    43   193   192    2
    44   111   110    1
    45   110   107    1
    46   192   191    1
    47   191   190    1
    48   116   115    1
    49   116   117    1
    50   115   108   am
    51    92    93    1
    52   190   189    1
    53   108   107    1
    54   108   109    2
    55   107   106    1
    56   189   186    1
    57    41    39    1
    58   117   118    2
    59   117   122   am
    60   106   104   am
    61    93    95   am
    62    93    94    2
    63    95    96    1
    64   101    99    1
    65   155   154    2
    66   187   188    2
    67   187   186    1
    68    15    14    1
    69   100    99    1
    70   152   153    1
    71   186   185    1
    72    12    11    1
    73    12    13    1
    74    39    40    1
    75    39    38    2
    76   122   123    1
    77   156   157    1
    78   156   153    1
    79    99    96    1
    80    14    13    2
    81    14    16    1
    82   157   159    1
    83   157   158    1
    84   104   105    2
    85   104   103    1
    86    11    10    1
    87    96    97    1
    88    10     7    1
    89     5     2    1
    90   102   103    1
    91   102    97   am
    92   154   153    1
    93   185   179   am
    94    38    37    1
    95    97    98    2
    96   123   124    1
    97   123   126    1
    98     7     6    1
    99     7     8    1
   100     6     3   am
   101   177   178    1
   102   127   126    1
   103   198   199    2
   104   198   197    1
   105   179   180    2
   106   179   178    1
   107     2     3    1
   108     2     1    1
   109    37    36    1
   110     3     4    2
   111   124   125    2
   112   196   197    1
   113   178   181    1
   114    36    35    1
   115     8     9    2
   116   197   200    1
   117   200   201    1
   118   160   161    1
   119    35    32    1
   120   181   182    1
   121   167   165    1
   122    79    77   am
   123    78    77    2
   124    77    76    1
   125   163   162    2
   126   202   201    1
   127   201   203    1
   128    76    75    1
   129   161   164    1
   130   161   162    1
   131    32    31    1
   132    32    33    1
   133   182   183    1
   134   182   184    1
   135   164   165    1
   136   165   166    1
   137    48    42    1
   138    48    47    1
   139    31    19   am
   140    33    42   am
   141    33    34    2
   142    17    18    1
   143    75    72    1
   144    45    44    2
   145    42    43    1
   146    19    20    2
   147    19    18    1
   148    47    46    1
   149    18    21    1
   150    46    43    1
   151    72    73    1
   152    72    71    1
   153    44    43    1
   154    62    61    1
   155    21    22    1
   156    67    66    2
   157    74    73    2
   158    63    61    1
   159    23    22   ar
   160    23    25   ar
   161    61    58    1
   162    22    24   ar
   163    68    69    1
   164    68    65    1
   165    68    70    1
   166    66    65    1
   167    64    65    1
   168    64    59   am
   169    58    59    1
   170    58    57    1
   171    25    26   ar
   172   173   172    1
   173   173   174    1
   174    59    60    2
   175   176   174   am
   176    24    26   ar
   177    24    27   ar
   178   172   169    1
   179    57    51   am
   180    26    28   ar
   181   174   175    2
   182    52    51    2
   183    51    50    1
   184    27    29   ar
   185   170   171    2
   186   170   169    1
   187    53    50    1
   188    53    54    1
   189   169   168    1
   190    28    30   ar
   191    50    49    1
   192    56    54   ar
   193    29    30   ar
   194    54    55   ar
