@<TRIPOS>MOLECULE
tmp/1njjA00.pdb
 170 163 0 0 0
SMALL
GASTEIGER

@<TRIPOS>ATOM
      1  N         76.3040   93.5840  116.0760 N.3     2  THR2       -0.1203
      2  CA        75.0730   93.6320  116.9120 C.3     2  THR2        0.1994
      3  C         75.6070   93.3770  118.2820 C.2     2  THR2        0.2617
      4  O         75.2350   93.9780  119.2960 O.2     2  THR2       -0.2717
      5  CB        74.1270   92.4190  116.6970 C.3     2  THR2        0.1784
      6  OG1       73.6560   92.3910  115.3520 O.3     2  THR2       -0.2211
      7  CG2       72.9380   92.4780  117.6650 C.3     2  THR2        0.0376
      8  N         76.4790   92.3920  118.2570 N.am    3  ARG3       -0.1979
      9  CA        77.1620   91.9140  119.4090 C.3     3  ARG3        0.1597
     10  C         77.7400   93.0250  120.2710 C.2     3  ARG3        0.2287
     11  O         78.4200   92.7340  121.2470 O.2     3  ARG3       -0.2864
     12  CB        78.2370   90.9600  118.9360 C.3     3  ARG3        0.0334
     13  CG        79.4790   90.9460  119.7760 C.3     3  ARG3        0.0492
     14  CD        80.4170   89.9350  119.2280 C.3     3  ARG3        0.2205
     15  NE        79.6930   89.0320  118.3420 N.pl3   3  ARG3       -0.0865
     16  CZ        80.2500   88.0150  117.7050 C.cat   3  ARG3        0.5346
     17  NH1       81.5430   87.7730  117.8630 N.pl3   3  ARG3        0.1354
     18  NH2       79.5180   87.2450  116.9130 N.pl3   3  ARG3        0.1354
     19  N         74.0130   96.3470  121.7110 N.3     6  LEU6       -0.1231
     20  CA        73.5200   95.6860  122.8550 C.3     6  LEU6        0.1693
     21  C         74.7120   95.9160  123.7600 C.2     6  LEU6        0.2592
     22  O         74.6860   96.8660  124.5200 O.2     6  LEU6       -0.2718
     23  CB        73.3590   94.2050  122.5250 C.3     6  LEU6        0.0284
     24  CG        71.9600   93.6690  122.2190 C.3     6  LEU6        0.0019
     25  CD1       72.0170   92.2050  121.7950 C.3     6  LEU6        0.0001
     26  CD2       71.1080   93.8120  123.4620 C.3     6  LEU6        0.0001
     27  N         75.7970   95.1540  123.6430 N.am    7  CYS7       -0.1970
     28  CA        76.8420   95.4180  124.6250 C.3     7  CYS7        0.1712
     29  C         77.1800   96.8840  124.7930 C.2     7  CYS7        0.2296
     30  O         77.9190   97.2340  125.7020 O.2     7  CYS7       -0.2864
     31  CB        78.1190   94.5960  124.4150 C.3     7  CYS7        0.0983
     32  SG        78.8430   94.0460  126.0070 S.3     7  CYS7       -0.0798
     33  N         67.5020   80.0370  109.2100 N.3   204  THR204     -0.1203
     34  CA        68.6280   79.7830  110.1080 C.3   204  THR204      0.1994
     35  C         69.3530   78.4890  109.7340 C.2   204  THR204      0.2618
     36  O         68.8310   77.6760  108.9680 O.2   204  THR204     -0.2717
     37  CB        68.1440   79.6060  111.5510 C.3   204  THR204      0.1784
     38  OG1       67.5730   78.2980  111.6970 O.3   204  THR204     -0.2211
     39  CG2       67.0780   80.6340  111.8870 C.3   204  THR204      0.0376
     40  N         70.5530   78.2980  110.2780 N.am  205  ARG205     -0.1965
     41  CA        71.3100   77.0710  110.0330 C.3   205  ARG205      0.1729
     42  C         70.8440   76.0820  111.0940 C.2   205  ARG205      0.2616
     43  O         71.1950   74.9010  111.0760 O.2   205  ARG205     -0.2715
     44  CB        72.8140   77.3080  110.1850 C.3   205  ARG205      0.0348
     45  CG        73.5050   77.8880  108.9610 C.3   205  ARG205      0.0492
     46  CD        75.0120   77.9580  109.1920 C.3   205  ARG205      0.2205
     47  NE        75.7430   78.5520  108.0730 N.pl3 205  ARG205     -0.0865
     48  CZ        75.5470   79.7870  107.6170 C.cat 205  ARG205      0.5346
     49  NH1       74.6360   80.5730  108.1790 N.pl3 205  ARG205      0.1354
     50  NH2       76.2720   80.2430  106.6040 N.pl3 205  ARG205      0.1354
     51  N         70.0390   76.6030  112.0130 N.am  206  ASP206     -0.1971
     52  CA        69.4790   75.8520  113.1280 C.3   206  ASP206      0.1709
     53  C         68.7040   74.6120  112.6740 C.2   206  ASP206      0.2293
     54  O         68.8190   73.5440  113.2800 O.2   206  ASP206     -0.2864
     55  CB        68.5650   76.7850  113.9310 C.3   206  ASP206      0.1436
     56  CG        68.5080   76.4360  115.4050 C.2   206  ASP206      0.3671
     57  OD1       69.3490   75.6360  115.8640 O.co2 206  ASP206     -0.2456
     58  OD2       67.6270   76.9770  116.1090 O.co2 206  ASP206     -0.2456
     59  N         66.9680   85.4120  111.1610 N.3   245  SER245     -0.1217
     60  CA        68.2340   85.6510  111.8410 C.3   245  SER245      0.1889
     61  C         68.6450   87.1110  111.9580 C.2   245  SER245      0.2288
     62  O         69.5960   87.4230  112.6700 O.2   245  SER245     -0.2866
     63  CB        69.3520   84.8700  111.1460 C.3   245  SER245      0.2089
     64  OG        69.6620   85.4240  109.8740 O.3   245  SER245     -0.2183
     65  N         67.4830   90.2410  116.7970 N.3   248  THR248     -0.1218
     66  CA        67.9590   89.7510  118.0850 C.3   248  THR248      0.1862
     67  C         67.1990   90.5150  119.1780 C.2   248  THR248      0.2287
     68  O         67.2230   91.7510  119.2300 O.2   248  THR248     -0.2866
     69  CB        69.4790   89.9560  118.2160 C.3   248  THR248      0.1770
     70  OG1       70.1530   88.9800  117.4110 O.3   248  THR248     -0.2211
     71  CG2       69.9230   89.8070  119.6580 C.3   248  THR248      0.0375
     72  N         65.9810   80.0660  122.4930 N.3   285  ARG285     -0.1245
     73  CA        67.1430   79.8140  123.3500 C.3   285  ARG285      0.1563
     74  C         67.5930   81.0670  124.0910 C.2   285  ARG285      0.2260
     75  O         68.0630   82.0260  123.4750 O.2   285  ARG285     -0.2867
     76  CB        68.3110   79.2750  122.5080 C.3   285  ARG285      0.0307
     77  CG        67.9640   77.9570  121.8080 C.3   285  ARG285      0.0489
     78  CD        68.9650   77.4440  120.7760 C.3   285  ARG285      0.2205
     79  NE        70.0330   76.6850  121.3540 N.pl3 285  ARG285     -0.0865
     80  CZ        70.2780   75.3810  121.4650 C.cat 285  ARG285      0.5346
     81  NH1       71.4030   75.1130  122.0960 N.pl3 285  ARG285      0.1354
     82  NH2       69.5300   74.3800  121.0060 N.pl3 285  ARG285      0.1354
     83  N         69.8690   83.5620  125.9970 N.3   287  LEU287     -0.1231
     84  CA        71.2910   83.7790  125.8500 C.3   287  LEU287      0.1678
     85  C         71.7630   84.9670  126.6660 C.2   287  LEU287      0.2434
     86  O         71.4640   86.1130  126.3460 O.2   287  LEU287     -0.2733
     87  CB        71.5930   84.0230  124.3710 C.3   287  LEU287      0.0284
     88  CG        72.3780   83.0380  123.5440 C.3   287  LEU287      0.0019
     89  CD1       73.7820   83.4030  123.3830 C.3   287  LEU287      0.0001
     90  CD2       72.3060   81.7680  124.1610 C.3   287  LEU287      0.0001
     91  N         72.4670   84.6990  127.7630 N.am  288  PRO288     -0.2718
     92  CA        73.0020   85.7300  128.6560 C.3   288  PRO288      0.1535
     93  C         73.8100   86.8290  127.9260 C.2   288  PRO288      0.2598
     94  O         74.4990   86.5320  126.9500 O.2   288  PRO288     -0.2715
     95  CB        73.8490   84.9000  129.6050 C.3   288  PRO288      0.0310
     96  CG        72.9960   83.6540  129.8000 C.3   288  PRO288      0.0237
     97  CD        72.2900   83.4220  128.4790 C.3   288  PRO288      0.0939
     98  N         73.7160   88.0920  128.3800 N.am  289  GLN289     -0.1964
     99  CA        74.4960   89.1920  127.7570 C.3   289  GLN289      0.1733
    100  C         75.6350   89.4040  128.6950 C.2   289  GLN289      0.2616
    101  O         76.0360   90.5170  129.0930 O.2   289  GLN289     -0.2715
    102  CB        73.7450   90.5160  127.6150 C.3   289  GLN289      0.0408
    103  CG        74.4720   91.5150  126.6450 C.3   289  GLN289      0.0908
    104  CD        74.3350   92.9890  127.0250 C.2   289  GLN289      0.2608
    105  OE1       75.1770   93.5470  127.7430 O.2   289  GLN289     -0.2717
    106  NE2       73.2690   93.6440  126.5520 N.am  289  GLN289     -0.0878
    107  N         76.1370   88.2630  129.0670 N.am  290  ARG290     -0.1963
    108  CA        77.2070   88.2660  129.9570 C.3   290  ARG290      0.1729
    109  C         78.1670   87.2460  129.4700 C.2   290  ARG290      0.2616
    110  O         77.8130   86.2120  128.8950 O.2   290  ARG290     -0.2715
    111  CB        76.7010   87.9720  131.3490 C.3   290  ARG290      0.0348
    112  CG        77.4530   88.7530  132.3790 C.3   290  ARG290      0.0492
    113  CD        76.6180   88.9530  133.6180 C.3   290  ARG290      0.2205
    114  NE        77.2700   89.8640  134.5510 N.pl3 290  ARG290     -0.0865
    115  CZ        77.3370   91.1840  134.3940 C.cat 290  ARG290      0.5346
    116  NH1       76.7820   91.7620  133.3360 N.pl3 290  ARG290      0.1354
    117  NH2       77.9740   91.9260  135.2910 N.pl3 290  ARG290      0.1354
    118  N         79.4080   87.6030  129.6940 N.am  291  GLU291     -0.1964
    119  CA        80.5390   86.8100  129.3180 C.3   291  GLU291      0.1718
    120  C         80.6530   85.5530  130.2010 C.2   291  GLU291      0.2458
    121  O         80.6710   85.6330  131.4340 O.2   291  GLU291     -0.2730
    122  CB        81.7670   87.7000  129.4390 C.3   291  GLU291      0.0428
    123  CG        81.4520   89.1840  129.1930 C.3   291  GLU291      0.1163
    124  CD        81.7410   89.6460  127.7720 C.2   291  GLU291      0.3649
    125  OE1       82.3900   90.7050  127.6330 O.co2 291  GLU291     -0.2457
    126  OE2       81.3240   88.9730  126.8010 O.co2 291  GLU291     -0.2457
    127  N         80.7070   84.3700  129.5570 N.am  292  PRO292     -0.2727
    128  CA        80.8120   82.9740  130.0140 C.3   292  PRO292      0.1402
    129  C         81.9740   82.5160  130.9030 C.2   292  PRO292      0.2269
    130  O         81.7450   81.9590  131.9830 O.2   292  PRO292     -0.2865
    131  CB        80.7550   82.2000  128.7030 C.3   292  PRO292      0.0296
    132  CG        79.7500   82.9840  127.9520 C.3   292  PRO292      0.0237
    133  CD        80.2500   84.3950  128.1550 C.3   292  PRO292      0.0939
    134  N         66.0900   75.2210  130.6820 N.3   315  TYR315     -0.1241
    135  CA        67.3380   75.4940  129.9970 C.3   315  TYR315      0.1605
    136  C         68.4370   75.8500  130.9980 C.2   315  TYR315      0.2264
    137  O         68.2350   76.6860  131.8810 O.2   315  TYR315     -0.2867
    138  CB        67.1090   76.6460  129.0160 C.3   315  TYR315      0.0534
    139  CG        68.1110   76.7300  127.8980 C.ar  315  TYR315     -0.0201
    140  CD1       68.2620   75.6820  126.9940 C.ar  315  TYR315     -0.0009
    141  CD2       68.8990   77.8640  127.7360 C.ar  315  TYR315     -0.0009
    142  CE1       69.1700   75.7680  125.9460 C.ar  315  TYR315      0.0417
    143  CE2       69.8050   77.9650  126.6950 C.ar  315  TYR315      0.0417
    144  CZ        69.9420   76.9120  125.8050 C.ar  315  TYR315      0.1957
    145  OH        70.8480   77.0100  124.7730 O.3   315  TYR315     -0.2866
    146  N         69.1650   87.5930  126.1490 N.3   327  LEU327     -0.1245
    147  CA        69.0080   87.7500  124.7180 C.3   327  LEU327      0.1561
    148  C         68.3840   86.5450  124.0450 C.2   327  LEU327      0.2260
    149  O         68.5300   85.4070  124.4990 O.2   327  LEU327     -0.2867
    150  CB        70.3660   88.0220  124.0780 C.3   327  LEU327      0.0270
    151  CG        71.1200   89.2800  124.5050 C.3   327  LEU327      0.0019
    152  CD1       72.4400   89.3500  123.7510 C.3   327  LEU327      0.0001
    153  CD2       70.2810   90.5120  124.2140 C.3   327  LEU327      0.0001
    154  N         68.1030   85.2370  120.0390 N.3   329  GLU329     -0.1231
    155  CA        68.4840   85.4400  118.6440 C.3   329  GLU329      0.1699
    156  C         67.5040   84.7390  117.7210 C.2   329  GLU329      0.2592
    157  O         66.7650   83.8460  118.1470 O.2   329  GLU329     -0.2718
    158  CB        69.8810   84.8830  118.3760 C.3   329  GLU329      0.0402
    159  CG        70.9600   85.3980  119.3050 C.3   329  GLU329      0.1161
    160  CD        72.3440   84.9080  118.9070 C.2   329  GLU329      0.3649
    161  OE1       72.4570   83.7790  118.3880 O.co2 329  GLU329     -0.2457
    162  OE2       73.3210   85.6450  119.1270 O.co2 329  GLU329     -0.2457
    163  N         67.5170   85.1290  116.4490 N.am  330  ASP330     -0.1974
    164  CA        66.6240   84.5320  115.4640 C.3   330  ASP330      0.1709
    165  C         65.1820   84.7900  115.8910 C.2   330  ASP330      0.2293
    166  O         64.3970   83.8650  116.0880 O.2   330  ASP330     -0.2864
    167  CB        66.8880   83.0240  115.3550 C.3   330  ASP330      0.1436
    168  CG        68.3090   82.7070  114.9030 C.2   330  ASP330      0.3671
    169  OD1       69.0080   83.6270  114.4150 O.co2 330  ASP330     -0.2456
    170  OD2       68.7200   81.5310  115.0230 O.co2 330  ASP330     -0.2456
@<TRIPOS>BOND
     1    50    48    1
     2    48    47    2
     3    48    49    1
     4    47    46    1
     5    45    46    1
     6    45    44    1
     7    36    35    2
     8    33    34    1
     9    35    34    1
    10    35    40   am
    11    64    63    1
    12    41    44    1
    13    41    40    1
    14    41    42    1
    15    34    37    1
    16    43    42    2
    17    42    51   am
    18    63    60    1
    19    59    60    1
    20    37    38    1
    21    37    39    1
    22    60    61    1
    23    61    62    2
    24    51    52    1
    25    53    52    1
    26    53    54    2
    27    52    55    1
    28    55    56    1
    29   169   168   ar
    30   168   170   ar
    31   168   167    1
    32     6     5    1
    33   167   164    1
    34    56    57   ar
    35    56    58   ar
    36   164   165    1
    37   164   163    1
    38   165   166    2
    39     1     2    1
    40   163   156   am
    41     5     2    1
    42     5     7    1
    43    65    66    1
    44     2     3    1
    45    18    16    1
    46    70    69    1
    47    16    17    1
    48    16    15    2
    49   156   157    2
    50   156   155    1
    51    66    69    1
    52    66    67    1
    53    69    71    1
    54     8     3   am
    55     8     9    1
    56     3     4    2
    57    15    14    1
    58   158   155    1
    59   158   159    1
    60   161   160   ar
    61   155   154    1
    62   160   162   ar
    63   160   159    1
    64    12     9    1
    65    12    13    1
    66    67    68    2
    67    14    13    1
    68     9    10    1
    69    10    11    2
    70    78    79    1
    71    78    77    1
    72    82    80    1
    73    79    80    2
    74    80    81    1
    75    19    20    1
    76    25    24    1
    77    77    76    1
    78    24    23    1
    79    24    26    1
    80    72    73    1
    81    76    73    1
    82    23    20    1
    83    20    21    1
    84    73    74    1
    85    89    88    1
    86    75    74    2
    87    88    90    1
    88    88    87    1
    89    27    21   am
    90    27    28    1
    91   152   151    1
    92    21    22    2
    93   148   149    2
    94   148   147    1
    95   150   151    1
    96   150   147    1
    97   153   151    1
    98    87    84    1
    99    31    28    1
   100    31    32    1
   101    28    29    1
   102   147   146    1
   103   145   144    1
   104    29    30    2
   105   144   142   ar
   106   144   143   ar
   107    84    83    1
   108    84    85    1
   109   142   140   ar
   110    86    85    2
   111   106   104   am
   112   103   104    1
   113   103   102    1
   114    85    91   am
   115   143   141   ar
   116   126   124   ar
   117    94    93    2
   118   140   139   ar
   119   104   105    2
   120   102    99    1
   121   125   124   ar
   122   141   139   ar
   123    99    98    1
   124    99   100    1
   125    91    97    1
   126    91    92    1
   127   124   123    1
   128   139   138    1
   129    93    98   am
   130    93    92    1
   131   132   133    1
   132   132   131    1
   133   133   127    1
   134    97    96    1
   135    92    95    1
   136   100   107   am
   137   100   101    2
   138   131   128    1
   139   110   109    2
   140   138   135    1
   141   107   108    1
   142   123   122    1
   143   119   122    1
   144   119   118    1
   145   119   120    1
   146   109   118   am
   147   109   108    1
   148   127   128    1
   149   127   120   am
   150    95    96    1
   151   108   111    1
   152   135   134    1
   153   135   136    1
   154   128   129    1
   155   120   121    2
   156   129   130    2
   157   136   137    2
   158   111   112    1
   159   112   113    1
   160   116   115    1
   161   113   114    1
   162   115   114    2
   163   115   117    1
