@<TRIPOS>MOLECULE
tmp/1njjD01.pdb
 169 165 0 0 0
SMALL
GASTEIGER

@<TRIPOS>ATOM
      1  N         23.5850   -5.2600   61.9190 N.3    42  ALA42      -0.1245
      2  CA        22.3140   -5.0090   61.2470 C.3    42  ALA42       0.1562
      3  C         22.3250   -5.6920   59.8680 C.2    42  ALA42       0.2260
      4  O         22.6980   -5.0820   58.8710 O.2    42  ALA42      -0.2867
      5  CB        22.0960   -3.5030   61.0890 C.3    42  ALA42       0.0290
      6  N         20.3390   -6.1520   57.6110 N.3    44  LYS44      -0.1245
      7  CA        19.6940   -5.4050   56.5350 C.3    44  LYS44       0.1561
      8  C         20.6930   -4.6360   55.6590 C.2    44  LYS44       0.2260
      9  O         20.4400   -4.3940   54.4780 O.2    44  LYS44      -0.2867
     10  CB        18.7090   -4.3990   57.1330 C.3    44  LYS44       0.0271
     11  CG        19.4060   -3.1520   57.6980 C.3    44  LYS44       0.0035
     12  CD        18.5820   -2.4150   58.7550 C.3    44  LYS44       0.0206
     13  CE        18.4780   -3.2330   60.0400 C.3    44  LYS44       0.1093
     14  NZ        17.7460   -2.5210   61.1220 N.3    44  LYS44      -0.1314
     15  N         21.7070   -8.3450   64.3210 N.3    63  ASP63      -0.1239
     16  CA        20.4710   -7.5890   64.4720 C.3    63  ASP63       0.1674
     17  C         19.5480   -7.8710   63.2880 C.2    63  ASP63       0.2266
     18  O         19.6620   -7.2300   62.2480 O.2    63  ASP63      -0.2867
     19  CB        20.7620   -6.0870   64.5290 C.3    63  ASP63       0.1410
     20  CG        19.5320   -5.2480   64.2270 C.2    63  ASP63       0.3668
     21  OD1       18.4160   -5.7620   64.4050 O.co2  63  ASP63      -0.2456
     22  OD2       19.6680   -4.0760   63.8220 O.co2  63  ASP63      -0.2456
     23  N         15.3670   -6.6610   66.3010 N.3    86  ALA86      -0.1245
     24  CA        15.2770   -5.2270   66.5440 C.3    86  ALA86       0.1562
     25  C         14.2620   -4.4060   65.7600 C.2    86  ALA86       0.2260
     26  O         14.4330   -3.1950   65.6080 O.2    86  ALA86      -0.2867
     27  CB        16.6610   -4.6010   66.3970 C.3    86  ALA86       0.0290
     28  N         12.4620    0.8140   73.0020 N.3   129  ARG129     -0.1245
     29  CA        13.2220    1.7550   72.1890 C.3   129  ARG129      0.1563
     30  C         12.6660    3.1700   72.2890 C.2   129  ARG129      0.2260
     31  O         11.4790    3.3860   72.0800 O.2   129  ARG129     -0.2867
     32  CB        13.2080    1.2980   70.7260 C.3   129  ARG129      0.0307
     33  CG        13.7010    2.3470   69.7390 C.3   129  ARG129      0.0489
     34  CD        13.8060    1.7540   68.3460 C.3   129  ARG129      0.2205
     35  NE        14.1520    2.7600   67.3480 N.pl3 129  ARG129     -0.0865
     36  CZ        14.3320    2.4940   66.0590 C.cat 129  ARG129      0.5346
     37  NH1       14.2030    1.2490   65.6160 N.pl3 129  ARG129      0.1354
     38  NH2       14.6230    3.4750   65.2120 N.pl3 129  ARG129      0.1354
     39  N          9.7720    5.5450   64.4050 N.3   135  PHE135     -0.1241
     40  CA        10.0420    4.6300   65.5030 C.3   135  PHE135      0.1605
     41  C         10.5970    5.3660   66.7170 C.2   135  PHE135      0.2264
     42  O         11.1190    6.4830   66.6020 O.2   135  PHE135     -0.2867
     43  CB        11.0480    3.5660   65.0670 C.3   135  PHE135      0.0534
     44  CG        10.4870    2.5340   64.1330 C.ar  135  PHE135     -0.0203
     45  CD1       11.1840    2.1730   62.9810 C.ar  135  PHE135     -0.0042
     46  CD2        9.3030    1.8710   64.4340 C.ar  135  PHE135     -0.0042
     47  CE1       10.7180    1.1540   62.1460 C.ar  135  PHE135     -0.0003
     48  CE2        8.8250    0.8480   63.6060 C.ar  135  PHE135     -0.0003
     49  CZ         9.5350    0.4900   62.4590 C.ar  135  PHE135     -0.0000
     50  N         18.2250    4.9050   68.4460 N.3   162  HIS162     -0.1241
     51  CA        18.9320    4.9400   67.1770 C.3   162  HIS162      0.1621
     52  C         18.9610    6.3590   66.6440 C.2   162  HIS162      0.2264
     53  O         17.9160    6.9660   66.4260 O.2   162  HIS162     -0.2867
     54  CB        18.2520    4.0220   66.1720 C.3   162  HIS162      0.0745
     55  CG        19.1040    3.7200   64.9740 C.ar  162  HIS162      0.0817
     56  ND1       19.4640    4.6830   64.0630 N.ar  162  HIS162     -0.2268
     57  CD2       19.6930    2.5730   64.5830 C.ar  162  HIS162      0.1154
     58  CE1       20.2510    4.1380   63.1490 C.ar  162  HIS162      0.1986
     59  NE2       20.4080    2.8640   63.4360 N.ar  162  HIS162     -0.2212
     60  N         20.8870    7.2020   63.8310 N.3   164  GLY164     -0.1210
     61  CA        21.0120    7.1500   62.3860 C.3   164  GLY164      0.1956
     62  C         22.3660    7.6530   61.9280 C.2   164  GLY164      0.2612
     63  O         23.1990    8.0370   62.7490 O.2   164  GLY164     -0.2717
     64  N         22.5840    7.6700   60.6170 N.am  165  SER165     -0.1952
     65  CA        23.8580    8.1100   60.0610 C.3   165  SER165      0.1924
     66  C         23.9180    9.5790   59.6590 C.2   165  SER165      0.2314
     67  O         24.9810   10.0800   59.2960 O.2   165  SER165     -0.2863
     68  CB        24.2180    7.2320   58.8650 C.3   165  SER165      0.2116
     69  OG        23.1040    7.0660   58.0060 O.3   165  SER165     -0.2180
     70  N         24.4880    3.6230   63.0600 N.3   202  GLY202     -0.1210
     71  CA        24.7380    4.9290   62.4720 C.3   202  GLY202      0.1956
     72  C         26.2050    5.3240   62.5050 C.2   202  GLY202      0.2611
     73  O         26.5450    6.5010   62.3630 O.2   202  GLY202     -0.2717
     74  N         27.0790    4.3420   62.6990 N.am  203  PHE203     -0.1976
     75  CA        28.5160    4.6020   62.7510 C.3   203  PHE203      0.1639
     76  C         29.1250    4.5380   61.3440 C.2   203  PHE203      0.2290
     77  O         28.9680    3.5430   60.6410 O.2   203  PHE203     -0.2864
     78  CB        29.2030    3.5750   63.6540 C.3   203  PHE203      0.0560
     79  CG        28.4970    3.3370   64.9540 C.ar  203  PHE203     -0.0200
     80  CD1       27.5930    2.2850   65.0870 C.ar  203  PHE203     -0.0042
     81  CD2       28.7250    4.1720   66.0460 C.ar  203  PHE203     -0.0042
     82  CE1       26.9330    2.0610   66.2940 C.ar  203  PHE203     -0.0003
     83  CE2       28.0700    3.9590   67.2570 C.ar  203  PHE203     -0.0003
     84  CZ        27.1700    2.9030   67.3790 C.ar  203  PHE203     -0.0000
     85  N         23.7660   -1.8610   67.3340 N.3   239  GLU239     -0.1231
     86  CA        23.3020   -2.4450   66.0780 C.3   239  GLU239      0.1684
     87  C         24.0380   -1.7670   64.9200 C.2   239  GLU239      0.2434
     88  O         23.4450   -1.0100   64.1500 O.2   239  GLU239     -0.2733
     89  CB        21.7970   -2.2230   65.9280 C.3   239  GLU239      0.0402
     90  CG        20.9420   -3.0210   66.8900 C.3   239  GLU239      0.1161
     91  CD        19.6530   -2.3120   67.2460 C.2   239  GLU239      0.3649
     92  OE1       18.7990   -2.9490   67.9000 O.co2 239  GLU239     -0.2457
     93  OE2       19.4980   -1.1210   66.8880 O.co2 239  GLU239     -0.2457
     94  N         25.3500   -2.0120   64.7970 N.am  240  PRO240     -0.2718
     95  CA        26.1000   -1.3860   63.7060 C.3   240  PRO240      0.1535
     96  C         25.8150   -2.0650   62.3650 C.2   240  PRO240      0.2599
     97  O         25.7650   -3.2970   62.2750 O.2   240  PRO240     -0.2715
     98  CB        27.5460   -1.5520   64.1580 C.3   240  PRO240      0.0310
     99  CG        27.5160   -2.9000   64.8100 C.3   240  PRO240      0.0237
    100  CD        26.2360   -2.8380   65.6380 C.3   240  PRO240      0.0939
    101  N         25.6110   -1.2560   61.3340 N.am  241  GLY241     -0.1941
    102  CA        25.3350   -1.8020   60.0160 C.3   241  GLY241      0.2014
    103  C         26.4010   -1.4550   58.9870 C.2   241  GLY241      0.2639
    104  O         27.1600   -2.3240   58.5500 O.2   241  GLY241     -0.2714
    105  N         26.4630   -0.1810   58.6100 N.am  242  ARG242     -0.1963
    106  CA        27.4140    0.2810   57.6190 C.3   242  ARG242      0.1729
    107  C         28.8630    0.2770   58.1010 C.2   242  ARG242      0.2616
    108  O         29.7940    0.1160   57.2980 O.2   242  ARG242     -0.2715
    109  CB        27.0160    1.6790   57.1350 C.3   242  ARG242      0.0348
    110  CG        26.9600    2.7230   58.2100 C.3   242  ARG242      0.0492
    111  CD        26.6150    4.1030   57.6580 C.3   242  ARG242      0.2205
    112  NE        25.1750    4.3070   57.4900 N.pl3 242  ARG242     -0.0865
    113  CZ        24.4890    4.0530   56.3780 C.cat 242  ARG242      0.5346
    114  NH1       25.1040    3.5790   55.3030 N.pl3 242  ARG242      0.1354
    115  NH2       23.1800    4.2740   56.3410 N.pl3 242  ARG242      0.1354
    116  N         29.0560    0.4480   59.4090 N.am  243  TYR243     -0.1974
    117  CA        30.3980    0.4540   59.9890 C.3   243  TYR243      0.1639
    118  C         31.2120   -0.7570   59.5220 C.2   243  TYR243      0.2290
    119  O         32.3610   -0.6230   59.1020 O.2   243  TYR243     -0.2864
    120  CB        30.3240    0.4430   61.5260 C.3   243  TYR243      0.0560
    121  CG        31.6800    0.2640   62.1840 C.ar  243  TYR243     -0.0198
    122  CD1       32.4750    1.3630   62.5120 C.ar  243  TYR243     -0.0009
    123  CD2       32.2020   -1.0120   62.3950 C.ar  243  TYR243     -0.0009
    124  CE1       33.7610    1.1920   63.0260 C.ar  243  TYR243      0.0417
    125  CE2       33.4760   -1.1930   62.9030 C.ar  243  TYR243      0.0417
    126  CZ        34.2540   -0.0920   63.2130 C.ar  243  TYR243      0.1957
    127  OH        35.5400   -0.2850   63.6640 O.3   243  TYR243     -0.2866
    128  N         17.6920    5.4850   47.9270 N.3   284  TYR284     -0.1227
    129  CA        17.3130    4.9450   49.2260 C.3   284  TYR284      0.1736
    130  C         18.2120    5.3280   50.4030 C.2   284  TYR284      0.2595
    131  O         17.7220    5.5180   51.5140 O.2   284  TYR284     -0.2718
    132  CB        17.2390    3.4190   49.1540 C.3   284  TYR284      0.0548
    133  CG        15.9970    2.8910   48.4850 C.ar  284  TYR284     -0.0200
    134  CD1       16.0820    1.9690   47.4420 C.ar  284  TYR284     -0.0009
    135  CD2       14.7320    3.3010   48.9020 C.ar  284  TYR284     -0.0009
    136  CE1       14.9360    1.4680   46.8320 C.ar  284  TYR284      0.0417
    137  CE2       13.5850    2.8060   48.3020 C.ar  284  TYR284      0.0417
    138  CZ        13.6910    1.8940   47.2680 C.ar  284  TYR284      0.1957
    139  OH        12.5550    1.4140   46.6620 O.3   284  TYR284     -0.2866
    140  N         19.5160    5.4500   50.1730 N.am  285  ASP285     -0.1960
    141  CA        20.4340    5.7620   51.2690 C.3   285  ASP285      0.1840
    142  C         21.2140    7.0750   51.1990 C.2   285  ASP285      0.2622
    143  O         22.1750    7.2510   51.9380 O.2   285  ASP285     -0.2715
    144  CB        21.4270    4.6120   51.4390 C.3   285  ASP285      0.1450
    145  CG        22.0500    4.5770   52.8190 C.2   285  ASP285      0.3671
    146  OD1       23.0700    3.8790   52.9910 O.co2 285  ASP285     -0.2456
    147  OD2       21.5160    5.2330   53.7360 O.co2 285  ASP285     -0.2456
    148  N         20.8200    7.9910   50.3220 N.am  286  HIS286     -0.1973
    149  CA        21.5230    9.2710   50.2150 C.3   286  HIS286      0.1656
    150  C         22.9730    9.1410   49.7440 C.2   286  HIS286      0.2291
    151  O         23.7640   10.0700   49.8950 O.2   286  HIS286     -0.2864
    152  CB        21.5170    9.9760   51.5690 C.3   286  HIS286      0.0771
    153  CG        20.1610   10.4100   52.0140 C.ar  286  HIS286      0.0820
    154  ND1       19.5810   11.5890   51.5940 N.ar  286  HIS286     -0.2267
    155  CD2       19.2570    9.8190   52.8300 C.ar  286  HIS286      0.1154
    156  CE1       18.3820   11.7050   52.1330 C.ar  286  HIS286      0.1986
    157  NE2       18.1600   10.6420   52.8890 N.ar  286  HIS286     -0.2212
    158  N         24.1620   -1.1960   52.0870 N.3   342  TYR342     -0.1241
    159  CA        22.8510   -0.9750   51.4710 C.3   342  TYR342      0.1605
    160  C         22.9560   -0.8850   49.9580 C.2   342  TYR342      0.2264
    161  O         22.5380    0.0990   49.3430 O.2   342  TYR342     -0.2867
    162  CB        22.2140    0.3050   52.0260 C.3   342  TYR342      0.0534
    163  CG        22.0750    0.2930   53.5260 C.ar  342  TYR342     -0.0201
    164  CD1       22.7280    1.2390   54.3150 C.ar  342  TYR342     -0.0009
    165  CD2       21.3190   -0.6910   54.1650 C.ar  342  TYR342     -0.0009
    166  CE1       22.6420    1.1980   55.7050 C.ar  342  TYR342      0.0417
    167  CE2       21.2250   -0.7410   55.5460 C.ar  342  TYR342      0.0417
    168  CZ        21.8840    0.2020   56.3100 C.ar  342  TYR342      0.1957
    169  OH        21.7900    0.1180   57.6730 O.3   342  TYR342     -0.2866
@<TRIPOS>BOND
     1   139   138    1
     2   136   138   ar
     3   136   134   ar
     4   138   137   ar
     5   134   133   ar
     6   128   129    1
     7   137   135   ar
     8   133   135   ar
     9   133   132    1
    10   132   129    1
    11   129   130    1
    12   161   160    2
    13   150   151    2
    14   150   149    1
    15   160   159    1
    16   140   130   am
    17   140   141    1
    18   149   148    1
    19   149   152    1
    20   148   142   am
    21   130   131    2
    22   142   141    1
    23   142   143    2
    24   141   144    1
    25   144   145    1
    26   159   162    1
    27   159   158    1
    28   152   153    1
    29   154   153   ar
    30   154   156   ar
    31   153   155   ar
    32   162   163    1
    33   156   157   ar
    34   145   146   ar
    35   145   147   ar
    36   155   157   ar
    37   163   165   ar
    38   163   164   ar
    39   165   167   ar
    40   164   166   ar
    41     9     8    2
    42   114   113    1
    43   167   168   ar
    44     8     7    1
    45   166   168   ar
    46   168   169    1
    47   115   113    1
    48   113   112    2
    49     7    10    1
    50     7     6    1
    51    10    11    1
    52   109   106    1
    53   109   110    1
    54   108   107    2
    55   112   111    1
    56   106   107    1
    57   106   105    1
    58   111   110    1
    59    11    12    1
    60    69    68    1
    61   107   116   am
    62   104   103    2
    63   105   103   am
    64    12    13    1
    65    68    65    1
    66     4     3    2
    67   103   102    1
    68   119   118    2
    69    67    66    2
    70   116   117    1
    71   118   117    1
    72    66    65    1
    73     3     2    1
    74   117   120    1
    75   102   101    1
    76    13    14    1
    77    65    64    1
    78    64    62   am
    79    77    76    2
    80     5     2    1
    81     2     1    1
    82   101    96   am
    83    76    75    1
    84   120   121    1
    85    62    61    1
    86    62    63    2
    87    47    49   ar
    88    47    45   ar
    89   121   123   ar
    90   121   122   ar
    91    18    17    2
    92    97    96    2
    93    73    72    2
    94    96    95    1
    95    61    60    1
    96   123   125   ar
    97    49    48   ar
    98    71    72    1
    99    71    70    1
   100    72    74   am
   101   122   124   ar
   102    74    75    1
   103    75    78    1
   104   125   126   ar
   105    45    44   ar
   106   124   126   ar
   107    58    59   ar
   108    58    56   ar
   109   126   127    1
   110    17    16    1
   111    59    57   ar
   112    48    46   ar
   113    78    79    1
   114    95    98    1
   115    95    94    1
   116    22    20   ar
   117    56    55   ar
   118    44    46   ar
   119    44    43    1
   120    88    87    2
   121    98    99    1
   122    20    21   ar
   123    20    19    1
   124    15    16    1
   125    39    40    1
   126    16    19    1
   127    57    55   ar
   128    94    87   am
   129    94   100    1
   130    99   100    1
   131    87    86    1
   132    79    80   ar
   133    79    81   ar
   134    55    54    1
   135    43    40    1
   136    80    82   ar
   137    38    36    1
   138    40    41    1
   139    26    25    2
   140    37    36    1
   141    25    24    1
   142    89    86    1
   143    89    90    1
   144    81    83   ar
   145    36    35    2
   146    86    85    1
   147    54    51    1
   148    82    84   ar
   149    23    24    1
   150    27    24    1
   151    53    52    2
   152    42    41    2
   153    52    51    1
   154    93    91   ar
   155    90    91    1
   156    51    50    1
   157    91    92   ar
   158    83    84   ar
   159    35    34    1
   160    34    33    1
   161    33    32    1
   162    32    29    1
   163    31    30    2
   164    29    30    1
   165    29    28    1
