@<TRIPOS>MOLECULE
tmp/1njrA00.pdb
 89 88 0 0 0
SMALL
GASTEIGER

@<TRIPOS>ATOM
      1  N         52.7730    3.6330   24.2480 N.3     7  ASP7       -0.1225
      2  CA        51.9890    2.4500   23.9040 C.3     7  ASP7        0.1805
      3  C         51.3890    1.8190   25.1570 C.2     7  ASP7        0.2598
      4  O         51.9900    1.8470   26.2280 O.2     7  ASP7       -0.2718
      5  CB        52.8510    1.4110   23.1770 C.3     7  ASP7        0.1424
      6  CG        52.0230    0.4870   22.2860 C.2     7  ASP7        0.3668
      7  OD1       51.8540    0.7980   21.0850 O.co2   7  ASP7       -0.2456
      8  OD2       51.5260   -0.5420   22.7850 O.co2   7  ASP7       -0.2456
      9  N         50.1980    1.2520   25.0100 N.am    8  THR8       -0.1939
     10  CA        49.5100    0.6100   26.1220 C.3     8  THR8        0.2028
     11  C         50.0360   -0.8020   26.3620 C.2     8  THR8        0.2642
     12  O         49.7910   -1.3920   27.4160 O.2     8  THR8       -0.2714
     13  CB        47.9970    0.5240   25.8550 C.3     8  THR8        0.1808
     14  OG1       47.7700   -0.1510   24.6100 O.3     8  THR8       -0.2208
     15  CG2       47.3870    1.9140   25.7940 C.3     8  THR8        0.0379
     16  N         50.7570   -1.3390   25.3810 N.am    9  ASN9       -0.1971
     17  CA        51.3080   -2.6900   25.4790 C.3     9  ASN9        0.1688
     18  C         52.7010   -2.6810   26.1000 C.2     9  ASN9        0.2292
     19  O         53.6680   -2.2340   25.4810 O.2     9  ASN9       -0.2864
     20  CB        51.3620   -3.3320   24.0890 C.3     9  ASN9        0.1181
     21  CG        51.8270   -4.7810   24.1250 C.2     9  ASN9        0.2629
     22  OD1       51.9220   -5.4350   23.0850 O.2     9  ASN9       -0.2716
     23  ND2       52.1170   -5.2890   25.3210 N.am    9  ASN9       -0.0877
     24  N         49.0990    6.7600   12.6940 N.3    49  PRO49      -0.2116
     25  CA        49.4170    5.7440   11.6850 C.3    49  PRO49       0.1372
     26  C         48.2230    4.8700   11.3280 C.2    49  PRO49       0.2244
     27  O         48.2930    3.6440   11.4310 O.2    49  PRO49      -0.2868
     28  CB        50.5080    4.9470   12.3730 C.3    49  PRO49       0.0268
     29  CG        49.9470    4.8460   13.7660 C.3    49  PRO49       0.0207
     30  CD        49.4320    6.2650   14.0450 C.3    49  PRO49       0.0892
     31  N         43.0580    1.3010   17.7660 N.3    59  GLY59      -0.1210
     32  CA        43.8330    1.4850   18.9730 C.3    59  GLY59       0.1956
     33  C         44.1900    2.9150   19.3030 C.2    59  GLY59       0.2612
     34  O         43.3700    3.6710   19.8310 O.2    59  GLY59      -0.2717
     35  N         45.4270    3.2810   18.9920 N.am   60  PHE60      -0.1962
     36  CA        45.9290    4.6180   19.2690 C.3    60  PHE60       0.1771
     37  C         45.0510    5.7010   18.6650 C.2    60  PHE60       0.2619
     38  O         44.7640    6.7030   19.3120 O.2    60  PHE60      -0.2715
     39  CB        47.3550    4.7600   18.7400 C.3    60  PHE60       0.0574
     40  CG        48.0640    5.9830   19.2360 C.ar   60  PHE60      -0.0200
     41  CD1       48.3600    6.1270   20.5900 C.ar   60  PHE60      -0.0042
     42  CD2       48.4420    6.9920   18.3540 C.ar   60  PHE60      -0.0042
     43  CE1       49.0250    7.2590   21.0590 C.ar   60  PHE60      -0.0003
     44  CE2       49.1080    8.1290   18.8120 C.ar   60  PHE60      -0.0003
     45  CZ        49.3990    8.2630   20.1680 C.ar   60  PHE60      -0.0000
     46  N         44.6190    5.5060   17.4240 N.am   61  ASP61      -0.1971
     47  CA        43.7840    6.5080   16.7730 C.3    61  ASP61       0.1709
     48  C         42.4610    6.7270   17.4950 C.2    61  ASP61       0.2293
     49  O         41.9600    7.8490   17.5510 O.2    61  ASP61      -0.2864
     50  CB        43.5230    6.1360   15.3090 C.3    61  ASP61       0.1436
     51  CG        44.7310    6.3910   14.4200 C.2    61  ASP61       0.3671
     52  OD1       45.6200    7.1730   14.8210 O.co2  61  ASP61      -0.2456
     53  OD2       44.7850    5.8240   13.3110 O.co2  61  ASP61      -0.2456
     54  N         53.2650    6.0760   18.6170 N.3   156  PRO156     -0.2102
     55  CA        52.8010    4.8210   19.2180 C.3   156  PRO156      0.1504
     56  C         53.5630    3.6170   18.6480 C.2   156  PRO156      0.2576
     57  O         54.4320    3.7750   17.7870 O.2   156  PRO156     -0.2718
     58  CB        51.3320    4.7930   18.8330 C.3   156  PRO156      0.0282
     59  CG        51.3900    5.3190   17.4220 C.3   156  PRO156      0.0208
     60  CD        52.3300    6.5170   17.5600 C.3   156  PRO156      0.0893
     61  N         53.2300    2.4200   19.1310 N.am  157  GLY157     -0.1943
     62  CA        53.8740    1.2100   18.6430 C.3   157  GLY157      0.2014
     63  C         53.3370    0.8810   17.2630 C.2   157  GLY157      0.2639
     64  O         52.3760    0.1220   17.1120 O.2   157  GLY157     -0.2714
     65  N         53.9810    1.4510   16.2530 N.am  158  LEU158     -0.1963
     66  CA        53.5830    1.3010   14.8560 C.3   158  LEU158      0.1728
     67  C         53.2450   -0.0950   14.3240 C.2   158  LEU158      0.2616
     68  O         54.0280   -1.0340   14.4600 O.2   158  LEU158     -0.2715
     69  CB        54.6570    1.9250   13.9640 C.3   158  LEU158      0.0311
     70  CG        54.9430    3.4090   14.2070 C.3   158  LEU158      0.0022
     71  CD1       56.0960    3.8470   13.3300 C.3   158  LEU158      0.0001
     72  CD2       53.7010    4.2370   13.9070 C.3   158  LEU158      0.0001
     73  N         52.0640   -0.1950   13.7130 N.am  159  CYS159     -0.1954
     74  CA        51.5600   -1.4190   13.0830 C.3   159  CYS159      0.1843
     75  C         51.4190   -2.6570   13.9630 C.2   159  CYS159      0.2626
     76  O         51.3170   -3.7710   13.4470 O.2   159  CYS159     -0.2714
     77  CB        52.4380   -1.7830   11.8800 C.3   159  CYS159      0.0997
     78  SG        52.6860   -0.4610   10.6670 S.3   159  CYS159     -0.0797
     79  N         51.3980   -2.4810   15.2780 N.am  160  THR160     -0.1936
     80  CA        51.2750   -3.6320   16.1660 C.3   160  THR160      0.2028
     81  C         49.8360   -3.9550   16.5600 C.2   160  THR160      0.2642
     82  O         49.5870   -4.9400   17.2560 O.2   160  THR160     -0.2714
     83  CB        52.1020   -3.4420   17.4480 C.3   160  THR160      0.1808
     84  OG1       51.6390   -2.2850   18.1560 O.3   160  THR160     -0.2208
     85  CG2       53.5760   -3.2790   17.1020 C.3   160  THR160      0.0379
     86  N         48.8940   -3.1360   16.1090 N.am  161  GLY161     -0.1954
     87  CA        47.5000   -3.3730   16.4410 C.3   161  GLY161      0.1869
     88  C         46.8680   -4.4050   15.5270 C.2   161  GLY161      0.2309
     89  O         47.3180   -5.5540   15.4660 O.2   161  GLY161     -0.2863
@<TRIPOS>BOND
     1    78    77    1
     2    26    27    2
     3    26    25    1
     4    25    28    1
     5    25    24    1
     6    77    74    1
     7    28    29    1
     8    24    30    1
     9    74    73    1
    10    74    75    1
    11    53    51   ar
    12    71    70    1
    13    76    75    2
    14    73    67   am
    15    29    30    1
    16    72    70    1
    17    75    79   am
    18    69    70    1
    19    69    66    1
    20    67    68    2
    21    67    66    1
    22    51    52   ar
    23    51    50    1
    24    66    65    1
    25    79    80    1
    26    50    47    1
    27    89    88    2
    28    88    87    1
    29    86    87    1
    30    86    81   am
    31    80    81    1
    32    80    83    1
    33    65    63   am
    34    81    82    2
    35    47    46    1
    36    47    48    1
    37    85    83    1
    38    64    63    2
    39    63    62    1
    40    59    60    1
    41    59    58    1
    42    46    37   am
    43    83    84    1
    44    48    49    2
    45    60    54    1
    46    31    32    1
    47    57    56    2
    48    42    44   ar
    49    42    40   ar
    50    54    55    1
    51    62    61    1
    52    56    61   am
    53    56    55    1
    54    37    36    1
    55    37    38    2
    56    39    40    1
    57    39    36    1
    58    44    45   ar
    59    58    55    1
    60    32    33    1
    61    35    36    1
    62    35    33   am
    63    40    41   ar
    64    33    34    2
    65    45    43   ar
    66    41    43   ar
    67     7     6   ar
    68     6     8   ar
    69     6     5    1
    70    22    21    2
    71     5     2    1
    72     2     1    1
    73     2     3    1
    74    20    21    1
    75    20    17    1
    76    21    23   am
    77    14    13    1
    78     9     3   am
    79     9    10    1
    80     3     4    2
    81    16    17    1
    82    16    11   am
    83    17    18    1
    84    19    18    2
    85    15    13    1
    86    13    10    1
    87    10    11    1
    88    11    12    2
