@<TRIPOS>MOLECULE
tmp/1nk6C00.pdb
 156 150 0 0 0
SMALL
GASTEIGER

@<TRIPOS>ATOM
      1  N         23.1310   29.2410   12.8930 N.3    29  GLU29      -0.1245
      2  CA        22.2970   29.6660   14.0100 C.3    29  GLU29       0.1567
      3  C         22.0570   31.1620   14.0120 C.2    29  GLU29       0.2260
      4  O         20.9480   31.6100   14.2900 O.2    29  GLU29      -0.2867
      5  CB        22.8980   29.2150   15.3420 C.3    29  GLU29       0.0388
      6  CG        22.4230   27.8250   15.7440 C.3    29  GLU29       0.1160
      7  CD        23.0660   27.3320   17.0200 C.2    29  GLU29       0.3649
      8  OE1       24.2900   27.0660   16.9980 O.co2  29  GLU29      -0.2457
      9  OE2       22.3520   27.2110   18.0440 O.co2  29  GLU29      -0.2457
     10  N         21.3230   33.9370   11.9100 N.3    31  TYR31      -0.1241
     11  CA        20.8760   34.1120   10.5310 C.3    31  TYR31       0.1605
     12  C         21.1520   35.4440    9.8510 C.2    31  TYR31       0.2264
     13  O         20.7510   35.6360    8.7190 O.2    31  TYR31      -0.2867
     14  CB        19.3780   33.7910   10.4270 C.3    31  TYR31       0.0534
     15  CG        18.5160   34.4820   11.4670 C.ar   31  TYR31      -0.0201
     16  CD1       18.3030   35.8630   11.4310 C.ar   31  TYR31      -0.0009
     17  CD2       17.9030   33.7470   12.4850 C.ar   31  TYR31      -0.0009
     18  CE1       17.4840   36.4930   12.3960 C.ar   31  TYR31       0.0417
     19  CE2       17.0990   34.3570   13.4390 C.ar   31  TYR31       0.0417
     20  CZ        16.8890   35.7250   13.3920 C.ar   31  TYR31       0.1957
     21  OH        16.0770   36.3100   14.3410 O.3    31  TYR31      -0.2866
     22  N          7.8530   27.7360    9.7560 N.3    75  PHE75      -0.1227
     23  CA         8.3990   27.4480   11.0730 C.3    75  PHE75       0.1736
     24  C          9.5300   28.4550   11.2610 C.2    75  PHE75       0.2595
     25  O         10.5170   28.4430   10.5120 O.2    75  PHE75      -0.2718
     26  CB         8.9390   26.0170   11.1620 C.3    75  PHE75       0.0547
     27  CG         9.4880   25.6650   12.5220 C.ar   75  PHE75      -0.0202
     28  CD1       10.7780   26.0490   12.8910 C.ar   75  PHE75      -0.0042
     29  CD2        8.6960   24.9810   13.4530 C.ar   75  PHE75      -0.0042
     30  CE1       11.2790   25.7580   14.1720 C.ar   75  PHE75      -0.0003
     31  CE2        9.1860   24.6880   14.7340 C.ar   75  PHE75      -0.0003
     32  CZ        10.4810   25.0780   15.0940 C.ar   75  PHE75      -0.0000
     33  N          9.3720   29.3330   12.2470 N.am   76  ASP76      -0.1974
     34  CA        10.3550   30.3690   12.5400 C.3    76  ASP76       0.1709
     35  C         10.4840   31.3010   11.3440 C.2    76  ASP76       0.2293
     36  O         11.5630   31.4490   10.7640 O.2    76  ASP76      -0.2864
     37  CB        11.7160   29.7550   12.8520 C.3    76  ASP76       0.1436
     38  CG        12.6860   30.7620   13.4220 C.2    76  ASP76       0.3671
     39  OD1       12.3460   31.9620   13.4860 O.co2  76  ASP76      -0.2456
     40  OD2       13.7980   30.3590   13.8090 O.co2  76  ASP76      -0.2456
     41  N         10.5870   34.4290   11.2820 N.3    78  LYS78      -0.1231
     42  CA        11.4850   35.5650   11.5140 C.3    78  LYS78       0.1693
     43  C         12.8840   35.3120   10.9630 C.2    78  LYS78       0.2591
     44  O         13.5130   36.2180   10.4200 O.2    78  LYS78      -0.2718
     45  CB        11.5720   35.9130   13.0060 C.3    78  LYS78       0.0285
     46  CG        12.5110   37.0800   13.3060 C.3    78  LYS78       0.0035
     47  CD        12.1940   37.7590   14.6360 C.3    78  LYS78       0.0206
     48  CE        12.3450   36.8120   15.8270 C.3    78  LYS78       0.1093
     49  NZ        13.7560   36.3770   16.0210 N.3    78  LYS78      -0.1314
     50  N         13.3640   34.0820   11.1190 N.am   79  ARG79      -0.1980
     51  CA        14.6790   33.6720   10.6250 C.3    79  ARG79       0.1597
     52  C         14.7410   33.9000    9.1120 C.2    79  ARG79       0.2287
     53  O         15.6600   34.5380    8.6030 O.2    79  ARG79      -0.2864
     54  CB        14.9000   32.1860   10.9640 C.3    79  ARG79       0.0334
     55  CG        16.0270   31.4600   10.2250 C.3    79  ARG79       0.0492
     56  CD        16.1970   30.0470   10.7990 C.3    79  ARG79       0.2205
     57  NE        16.6580   30.1070   12.1810 N.pl3  79  ARG79      -0.0865
     58  CZ        17.9400   30.1150   12.5390 C.cat  79  ARG79       0.5346
     59  NH1       18.8900   30.0440   11.6190 N.pl3  79  ARG79       0.1354
     60  NH2       18.2750   30.2510   13.8140 N.pl3  79  ARG79       0.1354
     61  N          6.4250   27.3730   14.8230 N.3    99  LEU99      -0.1245
     62  CA         7.2780   27.5550   15.9930 C.3    99  LEU99       0.1561
     63  C          6.5170   28.3320   17.0630 C.2    99  LEU99       0.2260
     64  O          6.4810   27.9390   18.2280 O.2    99  LEU99      -0.2867
     65  CB         8.5550   28.3230   15.6350 C.3    99  LEU99       0.0270
     66  CG         9.3640   28.8010   16.8610 C.3    99  LEU99       0.0019
     67  CD1        9.8670   27.5990   17.6650 C.3    99  LEU99       0.0001
     68  CD2       10.5320   29.6810   16.4040 C.3    99  LEU99       0.0001
     69  N         10.3660   23.4410   21.9770 N.3   111  VAL111     -0.1231
     70  CA        10.4040   23.0850   20.5700 C.3   111  VAL111      0.1692
     71  C         11.3480   24.0200   19.8200 C.2   111  VAL111      0.2592
     72  O         11.2070   25.2410   19.9050 O.2   111  VAL111     -0.2718
     73  CB         8.9980   23.1870   19.9610 C.3   111  VAL111      0.0266
     74  CG1        9.0650   23.0450   18.4450 C.3   111  VAL111      0.0020
     75  CG2        8.1070   22.1200   20.5690 C.3   111  VAL111      0.0020
     76  N         12.3120   23.4540   19.0990 N.am  112  ASP112     -0.1974
     77  CA        13.2470   24.2750   18.3450 C.3   112  ASP112      0.1709
     78  C         13.4780   23.8030   16.9080 C.2   112  ASP112      0.2293
     79  O         14.3940   24.2680   16.2280 O.2   112  ASP112     -0.2864
     80  CB        14.5800   24.4100   19.0890 C.3   112  ASP112      0.1436
     81  CG        15.3020   23.1000   19.2420 C.2   112  ASP112      0.3671
     82  OD1       16.3820   23.1100   19.8690 O.co2 112  ASP112     -0.2456
     83  OD2       14.7980   22.0700   18.7450 O.co2 112  ASP112     -0.2456
     84  N         16.4650   18.6060   12.8800 N.3   129  ASP129     -0.1239
     85  CA        17.5110   19.2890   12.1250 C.3   129  ASP129      0.1674
     86  C         18.8990   18.7710   12.5220 C.2   129  ASP129      0.2266
     87  O         19.8050   18.6680   11.6890 O.2   129  ASP129     -0.2867
     88  CB        17.4560   20.8040   12.3520 C.3   129  ASP129      0.1410
     89  CG        16.2930   21.4690   11.6350 C.2   129  ASP129      0.3668
     90  OD1       15.8440   20.9330   10.6060 O.co2 129  ASP129     -0.2456
     91  OD2       15.8400   22.5410   12.0900 O.co2 129  ASP129     -0.2456
     92  N         19.5630   38.9150   18.1400 N.3   309  ILE309     -0.1231
     93  CA        18.5120   38.0130   17.7070 C.3   309  ILE309      0.1692
     94  C         17.6240   37.8400   18.9210 C.2   309  ILE309      0.2592
     95  O         18.0860   37.4720   19.9990 O.2   309  ILE309     -0.2718
     96  CB        19.0560   36.6440   17.2520 C.3   309  ILE309      0.0266
     97  CG1       19.6620   36.7640   15.8520 C.3   309  ILE309      0.0019
     98  CG2       17.9320   35.6080   17.2600 C.3   309  ILE309      0.0020
     99  CD1       20.2090   35.4420   15.2990 C.3   309  ILE309      0.0001
    100  N         16.3480   38.1510   18.7500 N.am  310  PHE310     -0.1962
    101  CA        15.4010   38.0280   19.8420 C.3   310  PHE310      0.1771
    102  C         14.7670   36.6490   19.8050 C.2   310  PHE310      0.2620
    103  O         14.1080   36.2900   18.8210 O.2   310  PHE310     -0.2715
    104  CB        14.3130   39.0910   19.7110 C.3   310  PHE310      0.0574
    105  CG        14.7740   40.4790   20.0530 C.ar  310  PHE310     -0.0200
    106  CD1       15.0960   40.8150   21.3640 C.ar  310  PHE310     -0.0042
    107  CD2       14.8840   41.4520   19.0650 C.ar  310  PHE310     -0.0042
    108  CE1       15.5230   42.1080   21.6870 C.ar  310  PHE310     -0.0003
    109  CE2       15.3080   42.7410   19.3730 C.ar  310  PHE310     -0.0003
    110  CZ        15.6300   43.0720   20.6880 C.ar  310  PHE310     -0.0000
    111  N         14.9750   35.8600   20.8500 N.am  311  ASN311     -0.1958
    112  CA        14.3510   34.5520   20.8820 C.3   311  ASN311      0.1819
    113  C         12.9380   34.8070   21.3930 C.2   311  ASN311      0.2621
    114  O         12.7390   35.1720   22.5540 O.2   311  ASN311     -0.2715
    115  CB        15.0730   33.5900   21.8240 C.3   311  ASN311      0.1195
    116  CG        14.6050   32.1530   21.6350 C.2   311  ASN311      0.2630
    117  OD1       13.4400   31.9140   21.2860 O.2   311  ASN311     -0.2716
    118  ND2       15.5000   31.1940   21.8580 N.am  311  ASN311     -0.0877
    119  N         11.9620   34.6250   20.5130 N.am  312  GLN312     -0.1963
    120  CA        10.5620   34.8560   20.8400 C.3   312  GLN312      0.1733
    121  C          9.8400   33.6130   21.3620 C.2   312  GLN312      0.2616
    122  O          8.7270   33.7140   21.8720 O.2   312  GLN312     -0.2715
    123  CB         9.8440   35.3710   19.5920 C.3   312  GLN312      0.0408
    124  CG         8.4360   35.8680   19.8210 C.3   312  GLN312      0.0908
    125  CD         7.7840   36.3240   18.5310 C.2   312  GLN312      0.2608
    126  OE1        8.4280   36.3730   17.4830 O.2   312  GLN312     -0.2717
    127  NE2        6.5070   36.6610   18.6010 N.am  312  GLN312     -0.0878
    128  N         10.4690   32.4470   21.2470 N.am  313  ALA313     -0.1963
    129  CA         9.8320   31.2070   21.6920 C.3   313  ALA313      0.1728
    130  C         10.6470   30.4290   22.7080 C.2   313  ALA313      0.2616
    131  O         10.8700   29.2320   22.5380 O.2   313  ALA313     -0.2715
    132  CB         9.5410   30.3190   20.4880 C.3   313  ALA313      0.0334
    133  N         11.0780   31.0960   23.7710 N.am  314  LEU314     -0.1977
    134  CA        11.8860   30.4270   24.7850 C.3   314  LEU314      0.1596
    135  C         11.3460   30.4560   26.2100 C.2   314  LEU314      0.2287
    136  O         11.0350   29.4130   26.7710 O.2   314  LEU314     -0.2864
    137  CB        13.3030   31.0010   24.7960 C.3   314  LEU314      0.0297
    138  CG        14.1490   30.4980   25.9760 C.3   314  LEU314      0.0022
    139  CD1       14.6800   29.1030   25.6790 C.3   314  LEU314      0.0001
    140  CD2       15.2870   31.4560   26.2390 C.3   314  LEU314      0.0001
    141  N         20.2040   37.4950   22.2970 N.3   323  THR323     -0.1203
    142  CA        21.5070   36.8380   22.1670 C.3   323  THR323      0.1994
    143  C         22.3510   37.4160   21.0300 C.2   323  THR323      0.2617
    144  O         21.8310   38.0600   20.1120 O.2   323  THR323     -0.2717
    145  CB        21.3720   35.3110   21.8830 C.3   323  THR323      0.1784
    146  OG1       20.6910   35.1190   20.6390 O.3   323  THR323     -0.2211
    147  CG2       20.5930   34.6130   22.9750 C.3   323  THR323      0.0376
    148  N         23.6560   37.1690   21.1160 N.am  324  GLU324     -0.1979
    149  CA        24.6330   37.5770   20.1060 C.3   324  GLU324      0.1602
    150  C         24.4650   38.9370   19.4480 C.2   324  GLU324      0.2287
    151  O         24.1480   39.0120   18.2700 O.2   324  GLU324     -0.2864
    152  CB        24.6760   36.5290   19.0010 C.3   324  GLU324      0.0415
    153  CG        25.4100   35.2600   19.3480 C.3   324  GLU324      0.1163
    154  CD        25.3220   34.2400   18.2270 C.2   324  GLU324      0.3649
    155  OE1       24.4240   33.3720   18.2860 O.co2 324  GLU324     -0.2457
    156  OE2       26.1380   34.3200   17.2810 O.co2 324  GLU324     -0.2457
@<TRIPOS>BOND
     1    53    52    2
     2    13    12    2
     3    52    51    1
     4    22    23    1
     5    12    11    1
     6    55    56    1
     7    55    54    1
     8    44    43    2
     9    14    11    1
    10    14    15    1
    11    25    24    2
    12    11    10    1
    13    90    89   ar
    14    51    54    1
    15    51    50    1
    16    36    35    2
    17    56    57    1
    18    43    50   am
    19    43    42    1
    20    23    26    1
    21    23    24    1
    22    26    27    1
    23    24    33   am
    24    41    42    1
    25    35    34    1
    26    16    15   ar
    27    16    18   ar
    28    15    17   ar
    29    42    45    1
    30    59    58    1
    31    89    91   ar
    32    89    88    1
    33    87    86    2
    34    85    88    1
    35    85    86    1
    36    85    84    1
    37    57    58    2
    38    33    34    1
    39    18    20   ar
    40    17    19   ar
    41    27    28   ar
    42    27    29   ar
    43    58    60    1
    44    34    37    1
    45    37    38    1
    46    28    30   ar
    47     1     2    1
    48    45    46    1
    49    46    47    1
    50    20    19   ar
    51    20    21    1
    52    38    39   ar
    53    38    40   ar
    54    29    31   ar
    55     2     3    1
    56     2     5    1
    57     3     4    2
    58    30    32   ar
    59    47    48    1
    60    31    32   ar
    61    61    62    1
    62    99    97    1
    63     5     6    1
    64    65    62    1
    65    65    66    1
    66     6     7    1
    67    48    49    1
    68    97    96    1
    69    62    63    1
    70    79    78    2
    71    68    66    1
    72    66    67    1
    73    78    77    1
    74     8     7   ar
    75     7     9   ar
    76    63    64    2
    77    96    98    1
    78    96    93    1
    79   156   154   ar
    80   126   125    2
    81    93    92    1
    82    93    94    1
    83   154   155   ar
    84   154   153    1
    85   151   150    2
    86    77    80    1
    87    77    76    1
    88    74    73    1
    89   125   127   am
    90   125   124    1
    91    83    81   ar
    92   100    94   am
    93   100   101    1
    94   103   102    2
    95    94    95    2
    96   152   153    1
    97   152   149    1
    98   107   109   ar
    99   107   105   ar
   100    80    81    1
   101    76    71   am
   102    81    82   ar
   103   109   110   ar
   104   150   149    1
   105   123   124    1
   106   123   120    1
   107   104   101    1
   108   104   105    1
   109   102   101    1
   110   102   111   am
   111    71    72    2
   112    71    70    1
   113    73    75    1
   114    73    70    1
   115   105   106   ar
   116   149   148    1
   117   144   143    2
   118   132   129    1
   119   119   120    1
   120   119   113   am
   121    70    69    1
   122   146   145    1
   123   110   108   ar
   124   120   121    1
   125   111   112    1
   126   112   113    1
   127   112   115    1
   128   143   148   am
   129   143   142    1
   130   128   121   am
   131   128   129    1
   132   117   116    2
   133   121   122    2
   134   106   108   ar
   135   113   114    2
   136   116   115    1
   137   116   118   am
   138   129   130    1
   139   145   142    1
   140   145   147    1
   141   142   141    1
   142   131   130    2
   143   130   133   am
   144   133   134    1
   145   134   137    1
   146   134   135    1
   147   137   138    1
   148   139   138    1
   149   138   140    1
   150   135   136    2
