@<TRIPOS>MOLECULE
tmp/1nkhD03.pdb
 152 148 0 0 0
SMALL
GASTEIGER

@<TRIPOS>ATOM
      1  N         -9.2130   15.0220   23.2620 N.3    98  ARG98      -0.1245
      2  CA       -10.6610   15.0220   23.2790 C.3    98  ARG98       0.1563
      3  C        -11.3040   16.3370   23.7060 C.2    98  ARG98       0.2260
      4  O        -12.1120   16.9060   22.9670 O.2    98  ARG98      -0.2867
      5  CB       -11.1560   13.8880   24.1840 C.3    98  ARG98       0.0307
      6  CG       -12.6600   13.8770   24.4370 C.3    98  ARG98       0.0489
      7  CD       -13.0940   12.6060   25.1590 C.3    98  ARG98       0.2205
      8  NE       -14.5480   12.5560   25.2930 N.pl3  98  ARG98      -0.0865
      9  CZ       -15.2250   13.1060   26.2930 C.cat  98  ARG98       0.5346
     10  NH1      -14.5910   13.7400   27.2700 N.pl3  98  ARG98       0.1354
     11  NH2      -16.5450   13.0590   26.2890 N.pl3  98  ARG98       0.1354
     12  N        -18.8120   10.8640   22.4210 N.3   122  ASP122     -0.1239
     13  CA       -17.7870   10.0090   21.8310 C.3   122  ASP122      0.1674
     14  C        -18.4860    9.3100   20.6310 C.2   122  ASP122      0.2266
     15  O        -19.7050    9.0890   20.6820 O.2   122  ASP122     -0.2867
     16  CB       -17.3550    8.9380   22.8440 C.3   122  ASP122      0.1410
     17  CG       -16.5310    9.4940   23.9940 C.2   122  ASP122      0.3668
     18  OD1      -16.0170   10.6330   23.9210 O.co2 122  ASP122     -0.2456
     19  OD2      -16.3720    8.7510   24.9750 O.co2 122  ASP122     -0.2456
     20  N        -23.4190    2.1680   30.8060 N.3   147  MET147     -0.1245
     21  CA       -22.7650    1.5390   29.6470 C.3   147  MET147      0.1570
     22  C        -22.5490    0.0340   29.7880 C.2   147  MET147      0.2261
     23  O        -22.0920   -0.4310   30.8250 O.2   147  MET147     -0.2867
     24  CB       -21.4010    2.1830   29.4130 C.3   147  MET147      0.0387
     25  CG       -21.4410    3.5810   28.8750 C.3   147  MET147      0.0595
     26  SD       -19.8920    4.4100   29.2480 S.3   147  MET147     -0.1393
     27  CE       -18.7660    3.4260   28.4830 C.3   147  MET147      0.0692
     28  N        -20.3100   -1.5560   28.9690 N.3   149  LYS149     -0.1231
     29  CA       -18.8990   -1.6970   29.3260 C.3   149  LYS149      0.1693
     30  C        -18.7130   -1.7540   30.8450 C.2   149  LYS149      0.2592
     31  O        -17.7460   -2.3180   31.3460 O.2   149  LYS149     -0.2718
     32  CB       -18.1430   -0.5080   28.7410 C.3   149  LYS149      0.0285
     33  CG       -16.6880   -0.3910   29.0990 C.3   149  LYS149      0.0035
     34  CD       -16.3230    1.0690   29.0440 C.3   149  LYS149      0.0206
     35  CE       -15.1150    1.3010   28.2120 C.3   149  LYS149      0.1093
     36  NZ       -13.9400    0.6720   28.8470 N.3   149  LYS149     -0.1314
     37  N        -19.6450   -1.1610   31.5770 N.am  150  PHE150     -0.1976
     38  CA       -19.5820   -1.1500   33.0370 C.3   150  PHE150      0.1639
     39  C        -20.7680   -1.8970   33.6690 C.2   150  PHE150      0.2290
     40  O        -21.3010   -1.4960   34.6990 O.2   150  PHE150     -0.2864
     41  CB       -19.5450    0.2890   33.5450 C.3   150  PHE150      0.0560
     42  CG       -18.3500    1.0640   33.0740 C.ar  150  PHE150     -0.0200
     43  CD1      -18.5010    2.1600   32.2340 C.ar  150  PHE150     -0.0042
     44  CD2      -17.0740    0.7250   33.5020 C.ar  150  PHE150     -0.0042
     45  CE1      -17.3930    2.9200   31.8250 C.ar  150  PHE150     -0.0003
     46  CE2      -15.9620    1.4710   33.1020 C.ar  150  PHE150     -0.0003
     47  CZ       -16.1290    2.5780   32.2590 C.ar  150  PHE150     -0.0000
     48  N        -19.4310    4.0020   36.3110 N.3   155  PRO155     -0.2102
     49  CA       -18.2330    3.3380   36.8440 C.3   155  PRO155      0.1504
     50  C        -17.8340    3.9270   38.2000 C.2   155  PRO155      0.2575
     51  O        -17.1390    3.3010   38.9660 O.2   155  PRO155     -0.2718
     52  CB       -17.1880    3.5470   35.7370 C.3   155  PRO155      0.0282
     53  CG       -17.6460    4.8200   35.0680 C.3   155  PRO155      0.0208
     54  CD       -19.1540    4.7060   35.0480 C.3   155  PRO155      0.0893
     55  N        -18.2980    5.1460   38.4590 N.am  156  TYR156     -0.1977
     56  CA       -18.0930    5.9030   39.6950 C.3   156  TYR156      0.1639
     57  C        -18.9890    7.1220   39.5600 C.2   156  TYR156      0.2290
     58  O        -19.2170    7.6370   38.4520 O.2   156  TYR156     -0.2864
     59  CB       -16.6280    6.3210   39.9360 C.3   156  TYR156      0.0560
     60  CG       -15.9240    7.1220   38.8490 C.ar  156  TYR156     -0.0198
     61  CD1      -15.6340    8.4850   39.0190 C.ar  156  TYR156     -0.0009
     62  CD2      -15.4590    6.4930   37.6870 C.ar  156  TYR156     -0.0009
     63  CE1      -14.8820    9.1940   38.0540 C.ar  156  TYR156      0.0417
     64  CE2      -14.7290    7.1880   36.7320 C.ar  156  TYR156      0.0417
     65  CZ       -14.4380    8.5290   36.9140 C.ar  156  TYR156      0.1957
     66  OH       -13.6920    9.1800   35.9480 O.3   156  TYR156     -0.2866
     67  N        -18.3150   10.3530   37.5540 N.3   159  TYR159     -0.1241
     68  CA       -18.0420   10.1370   36.1350 C.3   159  TYR159      0.1605
     69  C        -18.8890   10.9650   35.1740 C.2   159  TYR159      0.2264
     70  O        -20.1170   10.8920   35.1930 O.2   159  TYR159     -0.2867
     71  CB       -18.2240    8.6600   35.8000 C.3   159  TYR159      0.0534
     72  CG       -17.9600    8.3180   34.3540 C.ar  159  TYR159     -0.0201
     73  CD1      -16.6910    8.5100   33.8030 C.ar  159  TYR159     -0.0009
     74  CD2      -18.9520    7.7420   33.5510 C.ar  159  TYR159     -0.0009
     75  CE1      -16.4190    8.1370   32.5090 C.ar  159  TYR159      0.0417
     76  CE2      -18.6860    7.3620   32.2450 C.ar  159  TYR159      0.0417
     77  CZ       -17.4160    7.5660   31.7340 C.ar  159  TYR159      0.1957
     78  OH       -17.1140    7.2150   30.4520 O.3   159  TYR159     -0.2866
     79  N        -17.7730   11.1160   31.6750 N.3   161  GLY161     -0.1210
     80  CA       -17.2670   10.7670   30.3530 C.3   161  GLY161      0.1956
     81  C        -18.3440   10.1920   29.4340 C.2   161  GLY161      0.2612
     82  O        -19.4930    9.9970   29.8730 O.2   161  GLY161     -0.2717
     83  N        -17.9800    9.9320   28.1740 N.am  162  GLY162     -0.1956
     84  CA       -18.9030    9.3560   27.1990 C.3   162  GLY162      0.1869
     85  C        -19.7940   10.3470   26.4660 C.2   162  GLY162      0.2309
     86  O        -19.4070   10.9450   25.4430 O.2   162  GLY162     -0.2863
     87  N         -5.2620   10.0000   26.8500 N.3   184  TRP184     -0.1227
     88  CA        -6.4520    9.5200   27.5340 C.3   184  TRP184      0.1737
     89  C         -6.6080    9.8960   29.0220 C.2   184  TRP184      0.2596
     90  O         -5.6420   10.1200   29.7550 O.2   184  TRP184     -0.2718
     91  CB        -6.5150    7.9900   27.3850 C.3   184  TRP184      0.0564
     92  CG        -7.7420    7.3570   27.9570 C.ar  184  TRP184      0.0003
     93  CD1       -8.9340    7.1650   27.3250 C.ar  184  TRP184      0.0946
     94  CD2       -7.9340    6.9450   29.3150 C.ar  184  TRP184      0.0152
     95  NE1       -9.8680    6.6670   28.2090 N.ar  184  TRP184     -0.2442
     96  CE2       -9.2790    6.5280   29.4410 C.ar  184  TRP184      0.0810
     97  CE3       -7.1010    6.8960   30.4440 C.ar  184  TRP184      0.0012
     98  CZ2       -9.8170    6.0700   30.6610 C.ar  184  TRP184      0.0191
     99  CZ3       -7.6320    6.4410   31.6600 C.ar  184  TRP184      0.0001
    100  CH2       -8.9800    6.0370   31.7540 C.ar  184  TRP184      0.0015
    101  N         -7.8620   10.0000   29.4330 N.am  185  GLY185     -0.1942
    102  CA        -8.1910   10.2380   30.8180 C.3   185  GLY185      0.2014
    103  C         -7.9810   11.5700   31.4670 C.2   185  GLY185      0.2639
    104  O         -7.1120   12.3510   31.0760 O.2   185  GLY185     -0.2714
    105  N         -8.8400   11.8110   32.4580 N.am  186  GLY186     -0.1939
    106  CA        -8.7910   13.0140   33.2690 C.3   186  GLY186      0.2014
    107  C         -9.5480   14.2380   32.8150 C.2   186  GLY186      0.2639
    108  O        -10.0240   14.9830   33.6520 O.2   186  GLY186     -0.2714
    109  N         -9.6710   14.4630   31.5150 N.am  187  GLU187     -0.1963
    110  CA       -10.3570   15.6580   31.0470 C.3   187  GLU187      0.1733
    111  C        -11.8080   15.7070   31.5050 C.2   187  GLU187      0.2616
    112  O        -12.3400   16.7910   31.8260 O.2   187  GLU187     -0.2715
    113  CB       -10.2630   15.7570   29.5180 C.3   187  GLU187      0.0429
    114  CG       -11.3730   15.0430   28.7280 C.3   187  GLU187      0.1163
    115  CD       -11.3150   13.5230   28.8090 C.2   187  GLU187      0.3649
    116  OE1      -12.3100   12.8800   28.4040 O.co2 187  GLU187     -0.2457
    117  OE2      -10.2860   12.9670   29.2760 O.co2 187  GLU187     -0.2457
    118  N        -12.4470   14.5380   31.5550 N.am  188  ASP188     -0.1957
    119  CA       -13.8400   14.4720   31.9560 C.3   188  ASP188      0.1840
    120  C        -13.9960   14.7110   33.4620 C.2   188  ASP188      0.2622
    121  O        -14.9930   15.2910   33.9110 O.2   188  ASP188     -0.2715
    122  CB       -14.4610   13.1360   31.5130 C.3   188  ASP188      0.1450
    123  CG       -13.7130   11.9240   32.0440 C.2   188  ASP188      0.3671
    124  OD1      -12.5130   12.0430   32.3760 O.co2 188  ASP188     -0.2456
    125  OD2      -14.3290   10.8400   32.1160 O.co2 188  ASP188     -0.2456
    126  N        -12.9960   14.2970   34.2370 N.am  189  ASP189     -0.1971
    127  CA       -13.0150   14.5190   35.6820 C.3   189  ASP189      0.1709
    128  C        -12.7990   16.0040   35.9020 C.2   189  ASP189      0.2293
    129  O        -13.3990   16.6160   36.7810 O.2   189  ASP189     -0.2864
    130  CB       -11.9020   13.7280   36.3570 C.3   189  ASP189      0.1436
    131  CG       -12.0310   12.2340   36.1290 C.2   189  ASP189      0.3671
    132  OD1      -13.1070   11.6740   36.4020 O.co2 189  ASP189     -0.2456
    133  OD2      -11.0480   11.6220   35.6720 O.co2 189  ASP189     -0.2456
    134  N        -21.1980    0.5820   24.0250 N.3   214  MET214     -0.1245
    135  CA       -20.0110    1.1930   23.4670 C.3   214  MET214      0.1570
    136  C        -19.4790    0.1500   22.5250 C.2   214  MET214      0.2261
    137  O        -19.2720   -0.9870   22.9220 O.2   214  MET214     -0.2867
    138  CB       -18.9310    1.4550   24.4970 C.3   214  MET214      0.0387
    139  CG       -17.8370    2.2990   23.8880 C.3   214  MET214      0.0595
    140  SD       -16.3480    2.5230   24.8250 S.3   214  MET214     -0.1393
    141  CE       -16.8520    3.7180   26.0140 C.3   214  MET214      0.0692
    142  N         -7.4020    0.4110   22.8760 N.3   219  ARG219     -0.1245
    143  CA        -6.9270    1.7850   22.9510 C.3   219  ARG219      0.1563
    144  C         -6.2290    2.2110   21.6440 C.2   219  ARG219      0.2260
    145  O         -5.4200    1.4720   21.0880 O.2   219  ARG219     -0.2867
    146  CB        -5.9700    1.9640   24.1330 C.3   219  ARG219      0.0307
    147  CG        -5.5130    3.4160   24.3200 C.3   219  ARG219      0.0489
    148  CD        -6.5410    4.2440   25.0690 C.3   219  ARG219      0.2205
    149  NE        -6.4940    3.9570   26.5040 N.pl3 219  ARG219     -0.0865
    150  CZ        -7.5540    3.6450   27.2490 C.cat 219  ARG219      0.5346
    151  NH1       -7.3980    3.4030   28.5510 N.pl3 219  ARG219      0.1354
    152  NH2       -8.7680    3.5690   26.6890 N.pl3 219  ARG219      0.1354
@<TRIPOS>BOND
     1    14    15    2
     2    14    13    1
     3   145   144    2
     4   144   143    1
     5    13    12    1
     6    13    16    1
     7   136   137    2
     8   136   135    1
     9    16    17    1
    10   142   143    1
    11   143   146    1
    12     4     3    2
    13     1     2    1
    14     2     3    1
    15     2     5    1
    16   135   134    1
    17   135   138    1
    18   139   138    1
    19   139   140    1
    20    18    17   ar
    21    17    19   ar
    22   146   147    1
    23     5     6    1
    24   147   148    1
    25     6     7    1
    26   140   141    1
    27   148   149    1
    28     7     8    1
    29     8     9    2
    30    86    85    2
    31    11     9    1
    32     9    10    1
    33    85    84    1
    34   149   150    2
    35   152   150    1
    36    87    88    1
    37    84    83    1
    38   150   151    1
    39    93    92   ar
    40    93    95   ar
    41    91    88    1
    42    91    92    1
    43    88    89    1
    44    92    94   ar
    45    83    81   am
    46    95    96   ar
    47    35    36    1
    48    35    34    1
    49   116   115   ar
    50    27    26    1
    51   114   115    1
    52   114   113    1
    53    32    33    1
    54    32    29    1
    55   115   117   ar
    56    25    26    1
    57    25    24    1
    58    28    29    1
    59    89   101   am
    60    89    90    2
    61    34    33    1
    62    94    96   ar
    63    94    97   ar
    64    29    30    1
    65    24    21    1
    66   101   102    1
    67    81    82    2
    68    81    80    1
    69    96    98   ar
    70   113   110    1
    71    21    22    1
    72    21    20    1
    73    22    23    2
    74    80    79    1
    75    97    99   ar
    76    78    77    1
    77    98   100   ar
    78   102   103    1
    79    30    31    2
    80    30    37   am
    81   110   111    1
    82   110   109    1
    83   104   103    2
    84   103   105   am
    85   111   118   am
    86   111   112    2
    87   122   119    1
    88   122   123    1
    89   109   107   am
    90   118   119    1
    91    37    38    1
    92    99   100   ar
    93    77    76   ar
    94    77    75   ar
    95    45    43   ar
    96    45    47   ar
    97   119   120    1
    98   123   125   ar
    99   123   124   ar
   100    43    42   ar
   101    76    74   ar
   102    47    46   ar
   103   105   106    1
   104    75    73   ar
   105   107   106    1
   106   107   108    2
   107    38    41    1
   108    38    39    1
   109    42    44   ar
   110    42    41    1
   111    46    44   ar
   112   120   121    2
   113   120   126   am
   114    74    72   ar
   115    39    40    2
   116    73    72   ar
   117   126   127    1
   118    72    71    1
   119    54    53    1
   120    54    48    1
   121    53    52    1
   122    69    70    2
   123    69    68    1
   124   133   131   ar
   125   127   128    1
   126   127   130    1
   127    52    49    1
   128    71    68    1
   129   128   129    2
   130    66    65    1
   131   131   130    1
   132   131   132   ar
   133    68    67    1
   134    48    49    1
   135    64    65   ar
   136    64    62   ar
   137    49    50    1
   138    65    63   ar
   139    62    60   ar
   140    63    61   ar
   141    50    55   am
   142    50    51    2
   143    58    57    2
   144    55    56    1
   145    60    61   ar
   146    60    59    1
   147    57    56    1
   148    56    59    1
