@<TRIPOS>MOLECULE
tmp/1nkkA00.pdb
 166 160 0 0 0
SMALL
GASTEIGER

@<TRIPOS>ATOM
      1  N          4.0060   51.1850    9.7000 N.3    17  LEU17      -0.1245
      2  CA         4.2180   49.8140   10.1150 C.3    17  LEU17       0.1561
      3  C          3.0800   48.9960    9.5460 C.2    17  LEU17       0.2260
      4  O          3.1530   47.7750    9.4390 O.2    17  LEU17      -0.2867
      5  CB         4.2190   49.7290   11.6300 C.3    17  LEU17       0.0270
      6  CG         5.3560   50.5180   12.2740 C.3    17  LEU17       0.0019
      7  CD1        5.0810   50.6640   13.7610 C.3    17  LEU17       0.0001
      8  CD2        6.6950   49.8270   11.9950 C.3    17  LEU17       0.0001
      9  N         -2.4620   36.5020    9.2690 N.3    28  ARG28      -0.1231
     10  CA        -1.6290   36.8420   10.4080 C.3    28  ARG28       0.1694
     11  C         -1.1090   38.2680   10.3130 C.2    28  ARG28       0.2591
     12  O         -0.6640   38.8370   11.3090 O.2    28  ARG28      -0.2718
     13  CB        -0.4710   35.8600   10.5080 C.3    28  ARG28       0.0321
     14  CG        -0.9310   34.4850   10.9290 C.3    28  ARG28       0.0489
     15  CD         0.2160   33.5080   11.0220 C.3    28  ARG28       0.2205
     16  NE        -0.2200   32.2530   11.6270 N.pl3  28  ARG28      -0.0865
     17  CZ         0.5530   31.1820   11.7680 C.cat  28  ARG28       0.5346
     18  NH1        1.8110   31.2050   11.3460 N.pl3  28  ARG28       0.1354
     19  NH2        0.0670   30.0880   12.3400 N.pl3  28  ARG28       0.1354
     20  N         -1.1750   38.8460    9.1160 N.am   29  LEU29      -0.1980
     21  CA        -0.7130   40.2090    8.9050 C.3    29  LEU29       0.1596
     22  C         -1.8300   41.2360    9.0350 C.2    29  LEU29       0.2287
     23  O         -1.5840   42.4430    8.9670 O.2    29  LEU29      -0.2864
     24  CB        -0.0360   40.3260    7.5430 C.3    29  LEU29       0.0297
     25  CG         1.3280   39.6380    7.4630 C.3    29  LEU29       0.0022
     26  CD1        1.8940   39.7330    6.0560 C.3    29  LEU29       0.0001
     27  CD2        2.2740   40.2980    8.4480 C.3    29  LEU29       0.0001
     28  N         16.5730   43.3540   11.1130 N.3    51  ASN51      -0.1225
     29  CA        15.8800   42.1680   10.6270 C.3    51  ASN51       0.1785
     30  C         15.3560   41.2440   11.7300 C.2    51  ASN51       0.2597
     31  O         15.4270   40.0150   11.6290 O.2    51  ASN51      -0.2718
     32  CB        16.7920   41.4010    9.6670 C.3    51  ASN51       0.1169
     33  CG        16.0060   40.5980    8.6440 C.2    51  ASN51       0.2627
     34  OD1       14.8140   40.8490    8.4300 O.2    51  ASN51      -0.2716
     35  ND2       16.6680   39.6390    7.9960 N.am   51  ASN51      -0.0877
     36  N         14.8280   41.8530   12.7840 N.am   52  HIS52      -0.1975
     37  CA        14.2530   41.1210   13.9000 C.3    52  HIS52       0.1656
     38  C         15.2270   40.3530   14.7640 C.2    52  HIS52       0.2291
     39  O         14.8110   39.5300   15.5830 O.2    52  HIS52      -0.2864
     40  CB        13.1780   40.1670   13.3980 C.3    52  HIS52       0.0771
     41  CG        11.9380   40.8550   12.9180 C.ar   52  HIS52       0.0820
     42  ND1       11.1220   41.5890   13.7520 N.ar   52  HIS52      -0.2267
     43  CD2       11.3580   40.8930   11.6950 C.ar   52  HIS52       0.1154
     44  CE1       10.0900   42.0430   13.0620 C.ar   52  HIS52       0.1986
     45  NE2       10.2080   41.6350   11.8120 N.ar   52  HIS52      -0.2212
     46  N         10.3480   48.4810    7.0060 N.3   120  LEU120     -0.1231
     47  CA        10.0810   48.4680    8.4300 C.3   120  LEU120      0.1693
     48  C          9.2260   47.2360    8.6790 C.2   120  LEU120      0.2593
     49  O          8.3880   46.8790    7.8520 O.2   120  LEU120     -0.2718
     50  CB         9.3200   49.7330    8.8180 C.3   120  LEU120      0.0284
     51  CG        10.1090   50.8980    9.4150 C.3   120  LEU120      0.0019
     52  CD1       11.4710   50.9830    8.7960 C.3   120  LEU120      0.0001
     53  CD2        9.3290   52.1720    9.2200 C.3   120  LEU120      0.0001
     54  N          9.4390   46.5720    9.8060 N.am  121  SER121     -0.1938
     55  CA         8.6740   45.3760   10.1020 C.3   121  SER121      0.2055
     56  C          8.3240   45.2680   11.5610 C.2   121  SER121      0.2643
     57  O          9.1830   44.9980   12.3980 O.2   121  SER121     -0.2714
     58  CB         9.4550   44.1440    9.6800 C.3   121  SER121      0.2130
     59  OG         8.7600   42.9640   10.0450 O.3   121  SER121     -0.2179
     60  N          7.0450   45.4780   11.8490 N.am  122  LEU122     -0.1963
     61  CA         6.5180   45.4190   13.2050 C.3   122  LEU122      0.1728
     62  C          6.4490   44.0000   13.7470 C.2   122  LEU122      0.2617
     63  O          6.1640   43.0590   13.0150 O.2   122  LEU122     -0.2715
     64  CB         5.1090   46.0140   13.2520 C.3   122  LEU122      0.0311
     65  CG         4.3140   45.6900   14.5250 C.3   122  LEU122      0.0022
     66  CD1        5.0330   46.2790   15.7370 C.3   122  LEU122      0.0001
     67  CD2        2.8930   46.2350   14.4180 C.3   122  LEU122      0.0001
     68  N          6.7160   43.8670   15.0390 N.am  123  SER123     -0.1936
     69  CA         6.6350   42.5870   15.7200 C.3   123  SER123      0.2055
     70  C          5.6050   42.7820   16.8320 C.2   123  SER123      0.2644
     71  O          5.7950   43.6160   17.7200 O.2   123  SER123     -0.2714
     72  CB         7.9830   42.2120   16.3290 C.3   123  SER123      0.2130
     73  OG         7.8890   40.9890   17.0400 O.3   123  SER123     -0.2179
     74  N          4.5060   42.0360   16.7690 N.am  124  SER124     -0.1935
     75  CA         3.4550   42.1370   17.7820 C.3   124  SER124      0.2055
     76  C          2.7740   40.7900   18.0250 C.2   124  SER124      0.2643
     77  O          2.9800   39.8280   17.2770 O.2   124  SER124     -0.2714
     78  CB         2.4150   43.1890   17.3660 C.3   124  SER124      0.2130
     79  OG         2.0040   43.0150   16.0190 O.3   124  SER124     -0.2179
     80  N          1.9680   40.7170   19.0790 N.am  125  ARG125     -0.1963
     81  CA         1.2730   39.4750   19.3930 C.3   125  ARG125      0.1729
     82  C          0.2050   39.2070   18.3470 C.2   125  ARG125      0.2616
     83  O         -0.3400   40.1410   17.7550 O.2   125  ARG125     -0.2715
     84  CB         0.6250   39.5480   20.7780 C.3   125  ARG125      0.0348
     85  CG        -0.5830   40.4810   20.8820 C.3   125  ARG125      0.0492
     86  CD        -1.3240   40.3100   22.2220 C.3   125  ARG125      0.2205
     87  NE        -0.5900   40.7920   23.4040 N.pl3 125  ARG125     -0.0865
     88  CZ         0.4000   40.1410   24.0250 C.cat 125  ARG125      0.5346
     89  NH1        0.8110   38.9540   23.5930 N.pl3 125  ARG125      0.1354
     90  NH2        0.9700   40.6730   25.1050 N.pl3 125  ARG125      0.1354
     91  N         -0.0920   37.9320   18.1240 N.am  126  ARG126     -0.1977
     92  CA        -1.1010   37.5460   17.1440 C.3   126  ARG126      0.1597
     93  C         -2.4510   38.2020   17.4230 C.2   126  ARG126      0.2287
     94  O         -3.0880   38.7480   16.5180 O.2   126  ARG126     -0.2864
     95  CB        -1.2650   36.0250   17.1260 C.3   126  ARG126      0.0334
     96  CG        -0.0830   35.2720   16.5370 C.3   126  ARG126      0.0492
     97  CD        -0.4720   33.8370   16.2310 C.3   126  ARG126      0.2205
     98  NE         0.3780   33.2230   15.2090 N.pl3 126  ARG126     -0.0865
     99  CZ         1.6460   32.8590   15.3920 C.cat 126  ARG126      0.5346
    100  NH1        2.2400   33.0460   16.5700 N.pl3 126  ARG126      0.1354
    101  NH2        2.3170   32.2970   14.3930 N.pl3 126  ARG126      0.1354
    102  N          5.9230   44.4750   20.3340 N.3   131  LYS131     -0.1231
    103  CA         7.2070   44.0150   20.8450 C.3   131  LYS131      0.1693
    104  C          8.3960   44.8530   20.3710 C.2   131  LYS131      0.2592
    105  O          9.2080   45.2970   21.1780 O.2   131  LYS131     -0.2718
    106  CB         7.4040   42.5430   20.4700 C.3   131  LYS131      0.0285
    107  CG         6.3010   41.6250   20.9990 C.3   131  LYS131      0.0035
    108  CD         6.2320   41.6400   22.5260 C.3   131  LYS131      0.0206
    109  CE         5.1510   40.6980   23.0670 C.3   131  LYS131      0.1093
    110  NZ         5.2040   40.5690   24.5590 N.3   131  LYS131     -0.1314
    111  N          8.4950   45.0760   19.0670 N.am  132  HIS132     -0.1976
    112  CA         9.5990   45.8580   18.5320 C.3   132  HIS132      0.1656
    113  C          9.4430   46.1160   17.0400 C.2   132  HIS132      0.2291
    114  O          8.7830   45.3640   16.3260 O.2   132  HIS132     -0.2864
    115  CB        10.9250   45.1200   18.7680 C.3   132  HIS132      0.0771
    116  CG        11.0620   43.8490   17.9830 C.ar  132  HIS132      0.0820
    117  ND1       11.1180   42.6070   18.5790 N.ar  132  HIS132     -0.2267
    118  CD2       11.1350   43.6270   16.6480 C.ar  132  HIS132      0.1154
    119  CE1       11.2160   41.6760   17.6450 C.ar  132  HIS132      0.1986
    120  NE2       11.2280   42.2690   16.4640 N.ar  132  HIS132     -0.2212
    121  N         14.5190   46.3640    7.8640 N.3   136  CYS136     -0.1235
    122  CA        14.6810   45.2240    6.9630 C.3   136  CYS136      0.1677
    123  C         14.7290   45.6570    5.4990 C.2   136  CYS136      0.2270
    124  O         14.4810   46.8160    5.1840 O.2   136  CYS136     -0.2867
    125  CB        13.5260   44.2340    7.1900 C.3   136  CYS136      0.0956
    126  SG        11.8310   44.9240    6.9250 S.3   136  CYS136     -0.0801
    127  N         12.6960   44.7220    3.2030 N.3   138  VAL138     -0.1231
    128  CA        11.3010   44.8150    2.7460 C.3   138  VAL138      0.1692
    129  C         10.4110   44.1670    3.7920 C.2   138  VAL138      0.2593
    130  O         10.7660   43.1270    4.3540 O.2   138  VAL138     -0.2718
    131  CB        11.0060   44.0660    1.4060 C.3   138  VAL138      0.0266
    132  CG1       11.1780   44.9720    0.2490 C.3   138  VAL138      0.0020
    133  CG2       11.8930   42.8580    1.2660 C.3   138  VAL138      0.0020
    134  N          9.2530   44.7680    4.0380 N.am  139  GLY139     -0.1942
    135  CA         8.3300   44.2130    5.0100 C.3   139  GLY139      0.2014
    136  C          7.2830   43.3490    4.3390 C.2   139  GLY139      0.2639
    137  O          6.9360   43.5810    3.1840 O.2   139  GLY139     -0.2714
    138  N          6.7850   42.3440    5.0500 N.am  140  ARG140     -0.1963
    139  CA         5.7630   41.4770    4.4800 C.3   140  ARG140      0.1729
    140  C          4.4620   42.2670    4.3820 C.2   140  ARG140      0.2616
    141  O          3.5650   41.9320    3.6030 O.2   140  ARG140     -0.2715
    142  CB         5.5840   40.2180    5.3360 C.3   140  ARG140      0.0348
    143  CG         6.8460   39.3730    5.3820 C.3   140  ARG140      0.0492
    144  CD         6.6000   37.9230    5.7360 C.3   140  ARG140      0.2205
    145  NE         5.7980   37.7500    6.9410 N.pl3 140  ARG140     -0.0865
    146  CZ         4.5230   37.3730    6.9330 C.cat 140  ARG140      0.5346
    147  NH1        3.9090   37.1360    5.7800 N.pl3 140  ARG140      0.1354
    148  NH2        3.8690   37.2070    8.0770 N.pl3 140  ARG140      0.1354
    149  N          4.3720   43.3260    5.1770 N.am  141  ARG141     -0.1977
    150  CA         3.2050   44.1870    5.1630 C.3   141  ARG141      0.1597
    151  C          3.5440   45.2360    4.0930 C.2   141  ARG141      0.2287
    152  O          4.6760   45.7330    4.0460 O.2   141  ARG141     -0.2864
    153  CB         3.0260   44.8240    6.5400 C.3   141  ARG141      0.0334
    154  CG         1.5810   44.8940    7.0140 C.3   141  ARG141      0.0492
    155  CD         1.2780   43.9190    8.1590 C.3   141  ARG141      0.2205
    156  NE         2.0950   44.1440    9.3580 N.pl3 141  ARG141     -0.0865
    157  CZ         1.9860   43.4370   10.4820 C.cat 141  ARG141      0.5346
    158  NH1        1.0960   42.4600   10.5700 N.pl3 141  ARG141      0.1354
    159  NH2        2.7730   43.6970   11.5170 N.pl3 141  ARG141      0.1354
    160  N          5.2960   49.6620    3.8380 N.3   144  THR144     -0.1218
    161  CA         6.2200   49.8440    4.9430 C.3   144  THR144      0.1862
    162  C          7.5960   50.4130    4.5790 C.2   144  THR144      0.2287
    163  O          8.5970   49.9960    5.1410 O.2   144  THR144     -0.2866
    164  CB         6.4170   48.5010    5.6730 C.3   144  THR144      0.1770
    165  OG1        6.7500   47.4820    4.7190 O.3   144  THR144     -0.2211
    166  CG2        5.1420   48.0880    6.3810 C.3   144  THR144      0.0375
@<TRIPOS>BOND
     1   132   131    1
     2   133   131    1
     3   131   128    1
     4   128   127    1
     5   128   129    1
     6   137   136    2
     7   141   140    2
     8   129   134   am
     9   129   130    2
    10   160   161    1
    11   134   135    1
    12   152   151    2
    13   151   150    1
    14   136   135    1
    15   136   138   am
    16   140   139    1
    17   140   149   am
    18   139   138    1
    19   139   142    1
    20   162   161    1
    21   162   163    2
    22   165   164    1
    23   161   164    1
    24   150   149    1
    25   150   153    1
    26   124   123    2
    27   142   143    1
    28   143   144    1
    29   123   122    1
    30   164   166    1
    31   144   145    1
    32   147   146    1
    33    26    25    1
    34   153   154    1
    35   126   125    1
    36   146   145    2
    37   146   148    1
    38   122   125    1
    39   122   121    1
    40    46    47    1
    41   154   155    1
    42    25    24    1
    43    25    27    1
    44    24    21    1
    45    49    48    2
    46    35    33   am
    47   155   156    1
    48    47    48    1
    49    47    50    1
    50    34    33    2
    51    33    32    1
    52    48    54   am
    53    52    51    1
    54    50    51    1
    55    21    22    1
    56    21    20    1
    57    23    22    2
    58    20    11   am
    59    53    51    1
    60     9    10    1
    61   156   157    2
    62     4     3    2
    63     3     2    1
    64    32    29    1
    65    58    59    1
    66    58    55    1
    67     1     2    1
    68    54    55    1
    69    55    56    1
    70     2     5    1
    71    11    10    1
    72    11    12    2
    73    10    13    1
    74   157   158    1
    75   157   159    1
    76    13    14    1
    77    29    28    1
    78    29    30    1
    79    14    15    1
    80    15    16    1
    81    18    17    1
    82    56    60   am
    83    56    57    2
    84    16    17    2
    85    31    30    2
    86     5     6    1
    87    43    45   ar
    88    43    41   ar
    89    30    36   am
    90    17    19    1
    91    45    44   ar
    92    60    61    1
    93     8     6    1
    94     6     7    1
    95    36    37    1
    96    41    40    1
    97    41    42   ar
    98    63    62    2
    99    44    42   ar
   100    61    64    1
   101    61    62    1
   102    64    65    1
   103    40    37    1
   104    62    68   am
   105    37    38    1
   106   101    99    1
   107    67    65    1
   108    65    66    1
   109    38    39    2
   110    68    69    1
   111    98    99    2
   112    98    97    1
   113    99   100    1
   114    69    72    1
   115    69    70    1
   116    79    78    1
   117    97    96    1
   118   114   113    2
   119    72    73    1
   120   120   118   ar
   121   120   119   ar
   122    94    93    2
   123    96    95    1
   124   118   116   ar
   125    74    70   am
   126    74    75    1
   127    70    71    2
   128   113   112    1
   129    95    92    1
   130    92    93    1
   131    92    91    1
   132    77    76    2
   133    78    75    1
   134   119   117   ar
   135    83    82    2
   136    75    76    1
   137   116   117   ar
   138   116   115    1
   139    76    80   am
   140    91    82   am
   141    82    81    1
   142   112   115    1
   143   112   111    1
   144   111   104   am
   145    80    81    1
   146    81    84    1
   147   102   103    1
   148   104   103    1
   149   104   105    2
   150   106   103    1
   151   106   107    1
   152    84    85    1
   153    85    86    1
   154   107   108    1
   155    86    87    1
   156   108   109    1
   157   109   110    1
   158    87    88    2
   159    89    88    1
   160    88    90    1
