@<TRIPOS>MOLECULE
tmp/1nkmA00.pdb
 180 174 0 0 0
SMALL
GASTEIGER

@<TRIPOS>ATOM
      1  N         54.6410    8.8810   16.5410 N.3    17  LEU17      -0.1245
      2  CA        54.9540    8.5180   17.9110 C.3    17  LEU17       0.1561
      3  C         55.0630    9.8160   18.6920 C.2    17  LEU17       0.2260
      4  O         54.8510    9.8480   19.9010 O.2    17  LEU17      -0.2867
      5  CB        56.2660    7.7280   17.9730 C.3    17  LEU17       0.0270
      6  CG        56.1090    6.4170   17.2010 C.3    17  LEU17       0.0019
      7  CD1       57.4540    5.7300   16.9520 C.3    17  LEU17       0.0001
      8  CD2       55.1270    5.5350   17.9670 C.3    17  LEU17       0.0001
      9  N         58.3880   14.9580   31.0530 N.3    28  GLU28      -0.1231
     10  CA        58.8710   13.6290   30.6890 C.3    28  GLU28       0.1699
     11  C         58.5810   13.2920   29.2330 C.2    28  GLU28       0.2592
     12  O         59.3740   12.6130   28.5920 O.2    28  GLU28      -0.2718
     13  CB        58.2340   12.5720   31.6010 C.3    28  GLU28       0.0402
     14  CG        56.6880   12.5350   31.5420 C.3    28  GLU28       0.1161
     15  CD        56.0600   11.4620   32.4420 C.2    28  GLU28       0.3649
     16  OE1       56.4210   10.2760   32.3090 O.co2  28  GLU28      -0.2457
     17  OE2       55.1950   11.8040   33.2780 O.co2  28  GLU28      -0.2457
     18  N         57.4510   13.7760   28.7180 N.am   29  LEU29      -0.1980
     19  CA        57.0370   13.5230   27.3320 C.3    29  LEU29       0.1596
     20  C         57.8330   14.2930   26.2700 C.2    29  LEU29       0.2287
     21  O         57.5490   14.1870   25.0730 O.2    29  LEU29      -0.2864
     22  CB        55.5440   13.8490   27.1580 C.3    29  LEU29       0.0297
     23  CG        54.4750   12.9820   27.8470 C.3    29  LEU29       0.0022
     24  CD1       53.0820   13.5400   27.5720 C.3    29  LEU29       0.0001
     25  CD2       54.5680   11.5560   27.3350 C.3    29  LEU29       0.0001
     26  N         49.0650   -1.6350   25.2380 N.3    50  ASN50      -0.1225
     27  CA        49.1650   -0.8850   26.4830 C.3    50  ASN50       0.1785
     28  C         50.4590   -1.1250   27.2400 C.2    50  ASN50       0.2597
     29  O         50.4800   -1.1720   28.4640 O.2    50  ASN50      -0.2718
     30  CB        47.9740   -1.2200   27.3840 C.3    50  ASN50       0.1169
     31  CG        46.9480   -0.1090   27.4260 C.2    50  ASN50       0.2627
     32  OD1       46.3130    0.2420   26.4060 O.2    50  ASN50      -0.2716
     33  ND2       46.7750    0.4620   28.6130 N.am   50  ASN50      -0.0877
     34  N         51.5480   -1.2860   26.5150 N.am   51  HIS51      -0.1975
     35  CA        52.8240   -1.4850   27.1750 C.3    51  HIS51       0.1656
     36  C         52.9720   -2.7780   27.9500 C.2    51  HIS51       0.2291
     37  O         54.0140   -2.9840   28.5650 O.2    51  HIS51      -0.2864
     38  CB        53.1080   -0.3150   28.1140 C.3    51  HIS51       0.0771
     39  CG        53.2360    0.9920   27.4070 C.ar   51  HIS51       0.0820
     40  ND1       54.1540    1.2020   26.3990 N.ar   51  HIS51      -0.2267
     41  CD2       52.5370    2.1440   27.5270 C.ar   51  HIS51       0.1154
     42  CE1       54.0110    2.4270   25.9280 C.ar   51  HIS51       0.1986
     43  NE2       53.0360    3.0180   26.5940 N.ar   51  HIS51      -0.2212
     44  N         48.8220    5.5860   19.5400 N.3   119  LEU119     -0.1231
     45  CA        50.1490    4.9750   19.5720 C.3   119  LEU119      0.1693
     46  C         51.0280    5.5390   20.6840 C.2   119  LEU119      0.2593
     47  O         51.2730    6.7360   20.7300 O.2   119  LEU119     -0.2718
     48  CB        50.8650    5.2040   18.2420 C.3   119  LEU119      0.0284
     49  CG        50.7690    4.1130   17.1880 C.3   119  LEU119      0.0019
     50  CD1       49.4240    3.4650   17.2500 C.3   119  LEU119      0.0001
     51  CD2       51.0470    4.7090   15.8290 C.3   119  LEU119      0.0001
     52  N         51.5140    4.6920   21.5810 N.am  120  SER120     -0.1938
     53  CA        52.3810    5.1920   22.6270 C.3   120  SER120      0.2055
     54  C         53.7600    4.5460   22.4800 C.2   120  SER120      0.2643
     55  O         53.8690    3.3310   22.3070 O.2   120  SER120     -0.2714
     56  CB        51.7790    4.9000   23.9920 C.3   120  SER120      0.2130
     57  OG        52.5940    5.4430   25.0100 O.3   120  SER120     -0.2179
     58  N         54.8070    5.3700   22.5260 N.am  121  LEU121     -0.1963
     59  CA        56.1860    4.9060   22.3870 C.3   121  LEU121      0.1728
     60  C         56.9610    4.7990   23.6970 C.2   121  LEU121      0.2617
     61  O         57.0540    5.7580   24.4400 O.2   121  LEU121     -0.2715
     62  CB        56.9440    5.8490   21.4650 C.3   121  LEU121      0.0311
     63  CG        58.4720    5.7970   21.5190 C.3   121  LEU121      0.0022
     64  CD1       58.9840    4.5210   20.8860 C.3   121  LEU121      0.0001
     65  CD2       59.0250    6.9860   20.7890 C.3   121  LEU121      0.0001
     66  N         57.5240    3.6340   23.9840 N.am  122  SER122     -0.1936
     67  CA        58.3140    3.4920   25.1920 C.3   122  SER122      0.2055
     68  C         59.7310    3.9830   24.8830 C.2   122  SER122      0.2644
     69  O         60.3520    3.5310   23.9220 O.2   122  SER122     -0.2714
     70  CB        58.3630    2.0360   25.6370 C.3   122  SER122      0.2130
     71  OG        59.0940    1.9090   26.8500 O.3   122  SER122     -0.2179
     72  N         60.2330    4.9190   25.6850 N.am  123  SER123     -0.1935
     73  CA        61.5770    5.4640   25.4800 C.3   123  SER123      0.2055
     74  C         62.3110    5.6200   26.8100 C.2   123  SER123      0.2643
     75  O         61.8270    5.1670   27.8540 O.2   123  SER123     -0.2714
     76  CB        61.5070    6.8340   24.7970 C.3   123  SER123      0.2130
     77  OG        60.9150    6.7500   23.5190 O.3   123  SER123     -0.2179
     78  N         63.4670    6.2830   26.7700 N.am  124  ARG124     -0.1963
     79  CA        64.2540    6.4970   27.9760 C.3   124  ARG124      0.1729
     80  C         64.2840    7.9380   28.5180 C.2   124  ARG124      0.2616
     81  O         63.6270    8.2320   29.5200 O.2   124  ARG124     -0.2715
     82  CB        65.6830    5.9890   27.7630 C.3   124  ARG124      0.0348
     83  CG        66.4080    6.5880   26.5770 C.3   124  ARG124      0.0492
     84  CD        67.8980    6.5640   26.8510 C.3   124  ARG124      0.2205
     85  NE        68.2080    7.3510   28.0430 N.pl3 124  ARG124     -0.0865
     86  CZ        69.4090    7.4290   28.6090 C.cat 124  ARG124      0.5346
     87  NH1       70.4350    6.7620   28.0980 N.pl3 124  ARG124      0.1354
     88  NH2       69.5860    8.1800   29.6870 N.pl3 124  ARG124      0.1354
     89  N         65.0370    8.8310   27.8740 N.am  125  ARG125     -0.1977
     90  CA        65.1450   10.2200   28.3470 C.3   125  ARG125      0.1597
     91  C         64.7060   11.2730   27.3270 C.2   125  ARG125      0.2287
     92  O         64.6230   12.4650   27.6430 O.2   125  ARG125     -0.2864
     93  CB        66.5880   10.5100   28.7870 C.3   125  ARG125      0.0334
     94  CG        66.8300   11.9330   29.3020 C.3   125  ARG125      0.0492
     95  CD        68.2550   12.1060   29.8400 C.3   125  ARG125      0.2205
     96  NE        68.5400   11.2050   30.9590 N.pl3 125  ARG125     -0.0865
     97  CZ        67.9280   11.2470   32.1410 C.cat 125  ARG125      0.5346
     98  NH1       66.9860   12.1550   32.3790 N.pl3 125  ARG125      0.1354
     99  NH2       68.2460   10.3690   33.0840 N.pl3 125  ARG125      0.1354
    100  N         62.3240    1.2980   23.4700 N.3   130  LYS130     -0.1231
    101  CA        61.9960    0.0080   24.0520 C.3   130  LYS130      0.1693
    102  C         60.9840   -0.7070   23.1860 C.2   130  LYS130      0.2592
    103  O         61.1910   -1.8460   22.7990 O.2   130  LYS130     -0.2718
    104  CB        61.4140    0.1870   25.4500 C.3   130  LYS130      0.0285
    105  CG        62.1880    1.1600   26.3240 C.3   130  LYS130      0.0035
    106  CD        63.6530    0.7580   26.4690 C.3   130  LYS130      0.0206
    107  CE        64.4130    1.7840   27.3000 C.3   130  LYS130      0.1093
    108  NZ        63.7880    2.0240   28.6480 N.3   130  LYS130     -0.1314
    109  N         59.8890   -0.0270   22.8750 N.am  131  HIS131     -0.1976
    110  CA        58.8320   -0.6090   22.0510 C.3   131  HIS131      0.1656
    111  C         57.7330    0.4110   21.7680 C.2   131  HIS131      0.2291
    112  O         57.7370    1.5160   22.2940 O.2   131  HIS131     -0.2864
    113  CB        58.2040   -1.8030   22.7750 C.3   131  HIS131      0.0771
    114  CG        57.6080   -1.4530   24.1070 C.ar  131  HIS131      0.0820
    115  ND1       58.1750   -1.8360   25.3050 N.ar  131  HIS131     -0.2267
    116  CD2       56.4970   -0.7450   24.4280 C.ar  131  HIS131      0.1154
    117  CE1       57.4370   -1.3810   26.3040 C.ar  131  HIS131      0.1986
    118  NE2       56.4130   -0.7150   25.7990 N.ar  131  HIS131     -0.2212
    119  N         47.3050    1.6740   22.1050 N.3   135  CYS135     -0.1221
    120  CA        46.5260    2.0160   23.2920 C.3   135  CYS135      0.1808
    121  C         45.2800    2.8210   22.9360 C.2   135  CYS135      0.2602
    122  O         45.1530    3.3220   21.8270 O.2   135  CYS135     -0.2717
    123  CB        47.4040    2.7850   24.2770 C.3   135  CYS135      0.0970
    124  SG        48.1670    4.2590   23.5820 S.3   135  CYS135     -0.0800
    125  N         44.3600    2.9640   23.8720 N.am  136  SER136     -0.1938
    126  CA        43.1390    3.6640   23.5310 C.3   136  SER136      0.2055
    127  C         43.3310    5.1370   23.2410 C.2   136  SER136      0.2643
    128  O         42.4560    5.7490   22.6330 O.2   136  SER136     -0.2714
    129  CB        42.0470    3.4380   24.5930 C.3   136  SER136      0.2130
    130  OG        42.4280    3.9430   25.8450 O.3   136  SER136     -0.2179
    131  N         44.4660    5.7010   23.6620 N.am  137  VAL137     -0.1963
    132  CA        44.7970    7.1190   23.4080 C.3   137  VAL137      0.1727
    133  C         46.2410    7.4010   23.8110 C.2   137  VAL137      0.2617
    134  O         46.6170    7.1310   24.9420 O.2   137  VAL137     -0.2715
    135  CB        43.9480    8.1300   24.2330 C.3   137  VAL137      0.0290
    136  CG1       44.1140    9.5100   23.6390 C.3   137  VAL137      0.0023
    137  CG2       42.4880    7.7420   24.2680 C.3   137  VAL137      0.0023
    138  N         47.0450    7.9620   22.9100 N.am  138  GLY138     -0.1940
    139  CA        48.4270    8.2580   23.2680 C.3   138  GLY138      0.2014
    140  C         48.5340    9.3780   24.2990 C.2   138  GLY138      0.2639
    141  O         47.6030   10.1610   24.4450 O.2   138  GLY138     -0.2714
    142  N         49.6350    9.4480   25.0450 N.am  139  ARG139     -0.1963
    143  CA        49.7980   10.5360   26.0070 C.3   139  ARG139      0.1729
    144  C         50.3040   11.7630   25.2380 C.2   139  ARG139      0.2616
    145  O         50.0670   12.9110   25.6370 O.2   139  ARG139     -0.2715
    146  CB        50.7820   10.1710   27.1100 C.3   139  ARG139      0.0348
    147  CG        50.1860    9.2920   28.1870 C.3   139  ARG139      0.0492
    148  CD        50.7910    9.6140   29.5240 C.3   139  ARG139      0.2205
    149  NE        52.2140    9.3160   29.5810 N.pl3 139  ARG139     -0.0865
    150  CZ        53.0480    9.8690   30.4570 C.cat 139  ARG139      0.5346
    151  NH1       52.5920   10.7590   31.3350 N.pl3 139  ARG139      0.1354
    152  NH2       54.3290    9.5130   30.4810 N.pl3 139  ARG139      0.1354
    153  N         51.0120   11.5120   24.1380 N.am  140  ARG140     -0.1977
    154  CA        51.4980   12.5810   23.2920 C.3   140  ARG140      0.1597
    155  C         50.3370   12.8810   22.3160 C.2   140  ARG140      0.2287
    156  O         49.4530   12.0470   22.1350 O.2   140  ARG140     -0.2864
    157  CB        52.7850   12.1360   22.5820 C.3   140  ARG140      0.0334
    158  CG        53.9710   11.9670   23.5530 C.3   140  ARG140      0.0492
    159  CD        55.3290   11.8580   22.8340 C.3   140  ARG140      0.2205
    160  NE        56.0460   10.6220   23.1710 N.pl3 140  ARG140     -0.0865
    161  CZ        56.8940   10.4760   24.1890 C.cat 140  ARG140      0.5346
    162  NH1       57.1680   11.5000   24.9880 N.pl3 140  ARG140      0.1354
    163  NH2       57.4320    9.2840   24.4450 N.pl3 140  ARG140      0.1354
    164  N         40.0890    7.1000   31.2440 N.3   195  ILE195     -0.1245
    165  CA        41.1240    8.0390   30.8570 C.3   195  ILE195      0.1561
    166  C         40.3560    9.3030   30.4700 C.2   195  ILE195      0.2260
    167  O         39.4960    9.2740   29.5790 O.2   195  ILE195     -0.2867
    168  CB        41.9200    7.5570   29.6510 C.3   195  ILE195      0.0252
    169  CG1       42.6910    6.2900   29.9930 C.3   195  ILE195      0.0019
    170  CG2       42.8990    8.6100   29.2460 C.3   195  ILE195      0.0019
    171  CD1       43.4110    5.6950   28.7680 C.3   195  ILE195      0.0001
    172  N         40.4000   14.1080   22.8500 N.3   201  LYS201     -0.1245
    173  CA        41.8090   14.0450   22.4990 C.3   201  LYS201      0.1561
    174  C         42.0070   13.2780   21.2040 C.2   201  LYS201      0.2260
    175  O         42.8330   13.6470   20.3700 O.2   201  LYS201     -0.2867
    176  CB        42.5800   13.3650   23.6290 C.3   201  LYS201      0.0271
    177  CG        43.9570   13.9380   23.9180 C.3   201  LYS201      0.0035
    178  CD        44.4600   13.4100   25.2770 C.3   201  LYS201      0.0206
    179  CE        43.3790   13.5240   26.3770 C.3   201  LYS201      0.1093
    180  NZ        43.8140   13.0500   27.7310 N.3   201  LYS201     -0.1314
@<TRIPOS>BOND
     1    51    49    1
     2     1     2    1
     3     7     6    1
     4    49    50    1
     5    49    48    1
     6     6     8    1
     7     6     5    1
     8     2     5    1
     9     2     3    1
    10    48    45    1
    11     3     4    2
    12    44    45    1
    13    45    46    1
    14   175   174    2
    15    46    47    2
    16    46    52   am
    17    65    63    1
    18    64    63    1
    19   174   173    1
    20    62    63    1
    21    62    59    1
    22    52    53    1
    23   111   110    1
    24   111   112    2
    25   122   121    2
    26   110   113    1
    27   110   109    1
    28   119   120    1
    29   156   155    2
    30    55    54    2
    31   155   154    1
    32    59    58    1
    33    59    60    1
    34    54    58   am
    35    54    53    1
    36   173   172    1
    37   173   176    1
    38   157   154    1
    39   157   158    1
    40    53    56    1
    41   128   127    2
    42   113   114    1
    43   103   102    2
    44   159   160    1
    45   159   158    1
    46   109   102   am
    47   138   139    1
    48   138   133   am
    49   121   120    1
    50   121   125   am
    51   160   161    2
    52   102   101    1
    53   127   126    1
    54   127   131   am
    55   139   140    1
    56   120   123    1
    57   154   153    1
    58   132   131    1
    59   132   133    1
    60   132   135    1
    61   100   101    1
    62    77    76    1
    63   126   125    1
    64   126   129    1
    65   124   123    1
    66   176   177    1
    67   136   135    1
    68    60    66   am
    69    60    61    2
    70   133   134    2
    71   177   178    1
    72    69    68    2
    73    66    67    1
    74    56    57    1
    75   101   104    1
    76   114   116   ar
    77   114   115   ar
    78   153   144   am
    79   161   163    1
    80   161   162    1
    81   135   137    1
    82   140   141    2
    83   140   142   am
    84   116   118   ar
    85   129   130    1
    86    76    73    1
    87    68    67    1
    88    68    72   am
    89   142   143    1
    90    21    20    2
    91    67    70    1
    92    26    27    1
    93   144   145    2
    94   144   143    1
    95   178   179    1
    96   115   117   ar
    97   104   105    1
    98    73    72    1
    99    73    74    1
   100    70    71    1
   101   118   117   ar
   102    42    40   ar
   103    42    43   ar
   104   143   146    1
   105    20    19    1
   106   105   106    1
   107   179   180    1
   108    40    39   ar
   109    32    31    2
   110   106   107    1
   111    27    28    1
   112    27    30    1
   113    34    35    1
   114    34    28   am
   115    83    84    1
   116    83    82    1
   117    43    41   ar
   118    78    74   am
   119    78    79    1
   120    74    75    2
   121    84    85    1
   122   146   147    1
   123    22    19    1
   124    22    23    1
   125    35    36    1
   126    35    38    1
   127    28    29    2
   128   107   108    1
   129    91    92    2
   130    91    90    1
   131    19    18    1
   132    25    23    1
   133    30    31    1
   134    39    41   ar
   135    39    38    1
   136    31    33   am
   137    24    23    1
   138    82    79    1
   139    89    90    1
   140    89    80   am
   141    36    37    2
   142    79    80    1
   143    85    86    2
   144    87    86    1
   145   147   148    1
   146    90    93    1
   147    80    81    2
   148    12    11    2
   149    86    88    1
   150    18    11   am
   151   171   169    1
   152    93    94    1
   153    11    10    1
   154   170   168    1
   155    94    95    1
   156   148   149    1
   157   167   166    2
   158   149   150    2
   159   168   169    1
   160   168   165    1
   161    95    96    1
   162   150   152    1
   163   150   151    1
   164   166   165    1
   165    10     9    1
   166    10    13    1
   167   165   164    1
   168    96    97    2
   169    14    13    1
   170    14    15    1
   171    97    98    1
   172    97    99    1
   173    16    15   ar
   174    15    17   ar
