@<TRIPOS>MOLECULE
tmp/1nksD00.pdb
 171 160 0 0 0
SMALL
GASTEIGER

@<TRIPOS>ATOM
      1  N         29.2570   75.2950   97.9310 N.3    10  PRO10      -0.2116
      2  CA        30.3840   75.9940   98.5380 C.3    10  PRO10       0.1372
      3  C         31.7170   75.6280   97.9250 C.2    10  PRO10       0.2244
      4  O         31.9910   74.4590   97.6380 O.2    10  PRO10      -0.2868
      5  CB        30.3100   75.6180   99.9900 C.3    10  PRO10       0.0268
      6  CG        29.0100   74.9410  100.2190 C.3    10  PRO10       0.0207
      7  CD        28.3130   74.7360   98.9310 C.3    10  PRO10       0.0892
      8  N         31.2870   81.2540   93.5160 N.3    14  LYS14      -0.1245
      9  CA        30.1060   82.0970   93.4550 C.3    14  LYS14       0.1561
     10  C         30.3920   83.5640   93.7180 C.2    14  LYS14       0.2260
     11  O         29.8970   84.4210   92.9510 O.2    14  LYS14      -0.2867
     12  CB        29.0430   81.5030   94.3390 C.3    14  LYS14       0.0271
     13  CG        27.5880   81.5760   94.1400 C.3    14  LYS14       0.0035
     14  CD        26.7850   80.4460   94.7290 C.3    14  LYS14       0.0206
     15  CE        27.0300   80.0380   96.1470 C.3    14  LYS14       0.1093
     16  NZ        26.3270   80.8890   97.1510 N.3    14  LYS14      -0.1314
     17  N         22.6980   88.5450   98.5880 N.3    36  ASN36      -0.1225
     18  CA        23.0100   87.2070   99.0910 C.3    36  ASN36       0.1785
     19  C         21.8070   86.7210   99.9000 C.2    36  ASN36       0.2597
     20  O         21.4270   87.4070  100.8400 O.2    36  ASN36      -0.2718
     21  CB        24.2990   87.1580   99.8450 C.3    36  ASN36       0.1169
     22  CG        24.6100   85.8440  100.4900 C.2    36  ASN36       0.2627
     23  OD1       23.9190   85.5060  101.4590 O.2    36  ASN36      -0.2716
     24  ND2       25.5930   85.0900  100.0320 N.am   36  ASN36      -0.0877
     25  N         21.2080   85.5800   99.5070 N.am   37  TYR37      -0.1962
     26  CA        20.0280   85.0540  100.1870 C.3    37  TYR37       0.1771
     27  C         20.2950   84.7790  101.6700 C.2    37  TYR37       0.2620
     28  O         19.4930   85.1340  102.5190 O.2    37  TYR37      -0.2715
     29  CB        19.5610   83.7250   99.5240 C.3    37  TYR37       0.0574
     30  CG        18.0910   83.4320   99.7920 C.ar   37  TYR37      -0.0198
     31  CD1       17.6510   82.7420  100.9080 C.ar   37  TYR37      -0.0009
     32  CD2       17.1260   83.8530   98.9010 C.ar   37  TYR37      -0.0009
     33  CE1       16.3020   82.5030  101.1270 C.ar   37  TYR37       0.0417
     34  CE2       15.7660   83.6210   99.0800 C.ar   37  TYR37       0.0417
     35  CZ        15.3660   82.9310  100.2050 C.ar   37  TYR37       0.1957
     36  OH        14.0420   82.7130  100.3890 O.3    37  TYR37      -0.2866
     37  N         21.4210   84.1170  101.9600 N.am   38  GLY38      -0.1954
     38  CA        21.8460   83.8250  103.3040 C.3    38  GLY38       0.1869
     39  C         21.9240   85.0720  104.2070 C.2    38  GLY38       0.2309
     40  O         21.4750   84.9920  105.3720 O.2    38  GLY38      -0.2863
     41  N         18.5060   85.8990  105.4710 N.3    41  MET41      -0.1245
     42  CA        18.0250   84.9010  106.4170 C.3    41  MET41       0.1570
     43  C         18.6400   85.1750  107.7980 C.2    41  MET41       0.2261
     44  O         17.9680   85.1590  108.8110 O.2    41  MET41      -0.2867
     45  CB        18.3930   83.5060  105.9180 C.3    41  MET41       0.0387
     46  CG        17.3970   82.8400  104.9990 C.3    41  MET41       0.0595
     47  SD        18.0190   81.2610  104.3410 S.3    41  MET41      -0.1393
     48  CE        17.6910   80.2120  105.7850 C.3    41  MET41       0.0692
     49  N         26.0740   82.6730  110.3820 N.3    54  ARG54      -0.1245
     50  CA        25.5850   81.9960  109.1970 C.3    54  ARG54       0.1563
     51  C         25.7920   80.5110  109.2290 C.2    54  ARG54       0.2260
     52  O         24.8070   79.7760  108.9790 O.2    54  ARG54      -0.2867
     53  CB        26.0120   82.6880  107.9070 C.3    54  ARG54       0.0307
     54  CG        27.3800   82.3260  107.3990 C.3    54  ARG54       0.0489
     55  CD        28.0420   83.3810  106.5280 C.3    54  ARG54       0.2205
     56  NE        27.2550   83.6630  105.3490 N.pl3  54  ARG54      -0.0865
     57  CZ        26.5220   84.7370  105.0950 C.cat  54  ARG54       0.5346
     58  NH1       26.4410   85.7630  105.9460 N.pl3  54  ARG54       0.1354
     59  NH2       25.8560   84.7470  103.9300 N.pl3  54  ARG54       0.1354
     60  N         22.9870   78.3490  110.9530 N.3    57  MET57      -0.1230
     61  CA        21.6390   78.3340  110.3860 C.3    57  MET57       0.1702
     62  C         21.2380   77.0280  109.7150 C.2    57  MET57       0.2592
     63  O         20.0870   76.5870  109.7940 O.2    57  MET57      -0.2718
     64  CB        21.5450   79.5150  109.4210 C.3    57  MET57       0.0401
     65  CG        20.7780   80.7130  109.8980 C.3    57  MET57       0.0596
     66  SD        20.4040   81.9130  108.5950 S.3    57  MET57      -0.1393
     67  CE        21.9620   81.8430  107.6880 C.3    57  MET57       0.0692
     68  N         22.1630   76.3400  109.0490 N.am   58  ARG58      -0.1980
     69  CA        21.8840   75.0940  108.4080 C.3    58  ARG58       0.1597
     70  C         21.7290   73.9300  109.3940 C.2    58  ARG58       0.2287
     71  O         21.3360   72.8590  108.9420 O.2    58  ARG58      -0.2864
     72  CB        22.8940   74.7380  107.3270 C.3    58  ARG58       0.0334
     73  CG        24.2640   74.3360  107.7140 C.3    58  ARG58       0.0492
     74  CD        25.2080   74.3030  106.5080 C.3    58  ARG58       0.2205
     75  NE        26.5790   74.3520  106.9790 N.pl3  58  ARG58      -0.0865
     76  CZ        27.4440   75.3530  107.0370 C.cat  58  ARG58       0.5346
     77  NH1       27.2000   76.5910  106.6240 N.pl3  58  ARG58       0.1354
     78  NH2       28.6690   75.1180  107.5350 N.pl3  58  ARG58       0.1354
     79  N         14.3560   76.7600  109.6320 N.3    65  GLN65      -0.1245
     80  CA        14.8870   77.1630  108.3330 C.3    65  GLN65       0.1566
     81  C         13.7890   77.5580  107.3610 C.2    65  GLN65       0.2260
     82  O         14.0090   78.5210  106.6030 O.2    65  GLN65      -0.2867
     83  CB        15.7770   76.1020  107.7190 C.3    65  GLN65       0.0367
     84  CG        16.8920   75.6630  108.6220 C.3    65  GLN65       0.0905
     85  CD        17.9480   74.8250  107.9660 C.2    65  GLN65       0.2608
     86  OE1       18.4840   75.1870  106.9180 O.2    65  GLN65      -0.2717
     87  NE2       18.3410   73.6970  108.5510 N.am   65  GLN65      -0.0878
     88  N         13.5450   81.1100  105.4400 N.3    69  GLN69      -0.1245
     89  CA        13.4220   81.1580  103.9830 C.3    69  GLN69       0.1566
     90  C         12.3050   82.0310  103.4590 C.2    69  GLN69       0.2260
     91  O         12.4650   82.8050  102.5070 O.2    69  GLN69      -0.2867
     92  CB        13.1780   79.7490  103.4410 C.3    69  GLN69       0.0367
     93  CG        14.4090   78.9740  103.0000 C.3    69  GLN69       0.0905
     94  CD        13.9780   77.6180  102.4270 C.2    69  GLN69       0.2608
     95  OE1       12.9820   77.0650  102.8880 O.2    69  GLN69      -0.2717
     96  NE2       14.7080   77.1060  101.4380 N.am   69  GLN69      -0.0878
     97  N         22.2900   85.5060   95.0450 N.3    91  ASP91      -0.1225
     98  CA        23.4080   84.5500   95.3150 C.3    91  ASP91       0.1805
     99  C         22.9180   83.5750   96.3950 C.2    91  ASP91       0.2598
    100  O         22.6070   84.0110   97.5230 O.2    91  ASP91      -0.2718
    101  CB        24.5800   85.3200   95.8340 C.3    91  ASP91       0.1424
    102  CG        25.7040   84.5170   96.4060 C.2    91  ASP91       0.3668
    103  OD1       25.8200   83.3040   96.1890 O.co2  91  ASP91      -0.2456
    104  OD2       26.5140   85.1660   97.0940 O.co2  91  ASP91      -0.2456
    105  N         22.7870   82.3050   96.0240 N.am   92  THR92      -0.1939
    106  CA        22.2150   81.3240   96.9580 C.3    92  THR92       0.2028
    107  C         22.5130   79.9010   96.6030 C.2    92  THR92       0.2642
    108  O         23.4690   79.5800   95.8830 O.2    92  THR92      -0.2714
    109  CB        20.6940   81.5580   97.0920 C.3    92  THR92       0.1808
    110  OG1       20.1510   80.7060   98.0690 O.3    92  THR92      -0.2208
    111  CG2       19.9250   81.4060   95.7850 C.3    92  THR92       0.0379
    112  N         21.7660   78.9800   97.1640 N.am   93  HIS93      -0.1973
    113  CA        22.0100   77.5480   96.9430 C.3    93  HIS93       0.1656
    114  C         20.8300   76.8040   96.3310 C.2    93  HIS93       0.2291
    115  O         19.6600   77.1550   96.5900 O.2    93  HIS93      -0.2864
    116  CB        22.2580   76.9510   98.3210 C.3    93  HIS93       0.0771
    117  CG        23.4950   77.5170   98.9500 C.ar   93  HIS93       0.0820
    118  ND1       24.7510   76.9960   98.7160 N.ar   93  HIS93      -0.2267
    119  CD2       23.6630   78.5740   99.7850 C.ar   93  HIS93       0.1154
    120  CE1       25.6380   77.6890   99.3650 C.ar   93  HIS93       0.1986
    121  NE2       24.9940   78.6380  100.0230 N.ar   93  HIS93      -0.2212
    122  N         20.7110   72.9480  100.2550 N.3    96  ILE96      -0.1245
    123  CA        21.5120   73.1880  101.4480 C.3    96  ILE96       0.1561
    124  C         21.8100   71.8660  102.1720 C.2    96  ILE96       0.2260
    125  O         20.8650   71.1020  102.3860 O.2    96  ILE96      -0.2867
    126  CB        20.7410   74.0920  102.4310 C.3    96  ILE96       0.0252
    127  CG1       20.6420   75.4940  101.8420 C.3    96  ILE96       0.0019
    128  CG2       21.4480   74.1930  103.7820 C.3    96  ILE96       0.0019
    129  CD1       19.5890   75.6850  100.7850 C.3    96  ILE96       0.0001
    130  N         17.9960   70.2840  101.9750 N.3   103  LEU103     -0.1245
    131  CA        16.8920   71.2070  101.9650 C.3   103  LEU103      0.1561
    132  C         16.9880   71.9850  100.6520 C.2   103  LEU103      0.2260
    133  O         18.0550   72.5080  100.3520 O.2   103  LEU103     -0.2867
    134  CB        17.0020   72.1960  103.1340 C.3   103  LEU103      0.0270
    135  CG        15.8620   73.2010  103.2620 C.3   103  LEU103      0.0019
    136  CD1       14.5280   72.5270  103.6220 C.3   103  LEU103      0.0001
    137  CD2       16.1630   74.2550  104.2950 C.3   103  LEU103      0.0001
    138  N         16.8770   74.9120   98.0880 N.3   105  GLY105     -0.1210
    139  CA        17.0030   76.3720   98.3720 C.3   105  GLY105      0.1956
    140  C         15.8570   77.1590   97.7980 C.2   105  GLY105      0.2611
    141  O         15.5400   78.2500   98.2300 O.2   105  GLY105     -0.2717
    142  N         15.1060   76.6040   96.8080 N.am  106  LEU106     -0.1979
    143  CA        14.0300   77.3020   96.1810 C.3   106  LEU106      0.1596
    144  C         12.7340   76.5480   96.1020 C.2   106  LEU106      0.2287
    145  O         12.2470   76.2150   95.0150 O.2   106  LEU106     -0.2864
    146  CB        14.4690   77.6270   94.7110 C.3   106  LEU106      0.0297
    147  CG        15.8280   78.3060   94.5960 C.3   106  LEU106      0.0022
    148  CD1       16.4700   78.1110   93.2560 C.3   106  LEU106      0.0001
    149  CD2       15.6240   79.7770   94.9710 C.3   106  LEU106      0.0001
    150  N         35.3280   80.0300  107.2220 N.3   139  ARG139     -0.1245
    151  CA        34.1540   79.2660  106.8500 C.3   139  ARG139      0.1563
    152  C         34.6050   77.8000  106.6590 C.2   139  ARG139      0.2260
    153  O         34.9920   77.3940  105.5680 O.2   139  ARG139     -0.2867
    154  CB        33.4360   79.7370  105.5980 C.3   139  ARG139      0.0307
    155  CG        31.9410   79.9800  105.7400 C.3   139  ARG139      0.0489
    156  CD        31.6030   81.4400  105.4700 C.3   139  ARG139      0.2205
    157  NE        32.3540   82.3570  106.3170 N.pl3 139  ARG139     -0.0865
    158  CZ        33.2420   83.2440  105.8860 C.cat 139  ARG139      0.5346
    159  NH1       33.5060   83.3510  104.5900 N.pl3 139  ARG139      0.1354
    160  NH2       33.8730   84.0240  106.7560 N.pl3 139  ARG139      0.1354
    161  N         34.1300   73.8050  106.3990 N.3   141  ARG141     -0.1245
    162  CA        33.0450   72.9580  105.8950 C.3   141  ARG141      0.1563
    163  C         33.1000   71.6130  106.5840 C.2   141  ARG141      0.2260
    164  O         32.2440   71.3470  107.4490 O.2   141  ARG141     -0.2867
    165  CB        32.9820   72.8710  104.3910 C.3   141  ARG141      0.0307
    166  CG        32.2920   74.0600  103.7270 C.3   141  ARG141      0.0489
    167  CD        31.0840   74.5550  104.4900 C.3   141  ARG141      0.2205
    168  NE        29.9310   73.6700  104.3810 N.pl3 141  ARG141     -0.0865
    169  CZ        28.7000   74.0700  104.0720 C.cat 141  ARG141      0.5346
    170  NH1       28.4430   75.3530  103.8420 N.pl3 141  ARG141      0.1354
    171  NH2       27.7010   73.1970  103.9900 N.pl3 141  ARG141      0.1354
@<TRIPOS>BOND
     1    11    10    2
     2   148   147    1
     3     9     8    1
     4     9    10    1
     5     9    12    1
     6    13    12    1
     7    13    14    1
     8   147   146    1
     9   147   149    1
    10   146   143    1
    11    14    15    1
    12   145   144    2
    13    97    98    1
    14    98   101    1
    15    98    99    1
    16   111   109    1
    17   101   102    1
    18   108   107    2
    19   105    99   am
    20   105   106    1
    21   144   143    1
    22    15    16    1
    23   143   142    1
    24   103   102   ar
    25   114   115    2
    26   114   113    1
    27    99   100    2
    28   102   104   ar
    29   107   106    1
    30   107   112   am
    31   142   140   am
    32   113   112    1
    33   113   116    1
    34   106   109    1
    35   109   110    1
    36     4     3    2
    37   140   141    2
    38   140   139    1
    39     3     2    1
    40     1     2    1
    41     1     7    1
    42   138   139    1
    43   116   117    1
    44     2     5    1
    45    17    18    1
    46   118   117   ar
    47   118   120   ar
    48    32    34   ar
    49    32    30   ar
    50     7     6    1
    51   117   119   ar
    52    34    35   ar
    53    18    21    1
    54    18    19    1
    55   120   121   ar
    56    25    19   am
    57    25    26    1
    58    29    30    1
    59    29    26    1
    60   119   121   ar
    61    30    31   ar
    62    21    22    1
    63    19    20    2
    64     5     6    1
    65    24    22   am
    66    26    27    1
    67    35    36    1
    68    35    33   ar
    69   122   123    1
    70   133   132    2
    71    22    23    2
    72   132   131    1
    73   129   127    1
    74    31    33   ar
    75    96    94   am
    76   123   124    1
    77   123   126    1
    78    27    37   am
    79    27    28    2
    80   127   126    1
    81    37    38    1
    82   131   130    1
    83   131   134    1
    84   124   125    2
    85    94    95    2
    86    94    93    1
    87   126   128    1
    88    91    90    2
    89    93    92    1
    90   134   135    1
    91   135   136    1
    92   135   137    1
    93    38    39    1
    94    92    89    1
    95    90    89    1
    96   166   165    1
    97   166   167    1
    98   170   169    1
    99    59    57    1
   100    89    88    1
   101   171   169    1
   102   169   168    2
   103    39    40    2
   104    47    46    1
   105    47    48    1
   106   168   167    1
   107   165   162    1
   108   159   158    1
   109    46    45    1
   110    57    56    2
   111    57    58    1
   112    56    55    1
   113   156   155    1
   114   156   157    1
   115    41    42    1
   116   153   152    2
   117   154   155    1
   118   154   151    1
   119   158   157    2
   120   158   160    1
   121   162   161    1
   122   162   163    1
   123    45    42    1
   124    42    43    1
   125    74    75    1
   126    74    73    1
   127    55    54    1
   128   163   164    2
   129    82    81    2
   130    77    76    1
   131   152   151    1
   132   151   150    1
   133    86    85    2
   134    75    76    2
   135    76    78    1
   136    72    73    1
   137    72    69    1
   138    81    80    1
   139    54    53    1
   140    67    66    1
   141    83    80    1
   142    83    84    1
   143    43    44    2
   144    53    50    1
   145    85    87   am
   146    85    84    1
   147    80    79    1
   148    69    68    1
   149    69    70    1
   150    66    65    1
   151    71    70    2
   152    52    51    2
   153    68    62   am
   154    50    51    1
   155    50    49    1
   156    64    65    1
   157    64    61    1
   158    62    63    2
   159    62    61    1
   160    61    60    1
