@<TRIPOS>MOLECULE
tmp/1nksF01.pdb
 128 124 0 0 0
SMALL
GASTEIGER

@<TRIPOS>ATOM
      1  N         14.7920   64.3340   72.5590 N.3     9  ILE9       -0.1231
      2  CA        15.7050   65.4650   72.1810 C.3     9  ILE9        0.1678
      3  C         15.8030   65.3830   70.6910 C.2     9  ILE9        0.2434
      4  O         15.5590   64.2960   70.1390 O.2     9  ILE9       -0.2733
      5  CB        16.9530   65.3620   73.0390 C.3     9  ILE9        0.0265
      6  CG1       17.7480   64.0810   72.7570 C.3     9  ILE9        0.0019
      7  CG2       16.5930   65.4020   74.5330 C.3     9  ILE9        0.0020
      8  CD1       19.1520   64.4680   72.2920 C.3     9  ILE9        0.0001
      9  N         16.0570   66.4620   69.9830 N.am   10  PRO10      -0.2718
     10  CA        16.1190   66.4340   68.5080 C.3    10  PRO10       0.1535
     11  C         17.0160   65.3380   67.9960 C.2    10  PRO10       0.2599
     12  O         18.1220   65.1150   68.4960 O.2    10  PRO10      -0.2715
     13  CB        16.5740   67.8420   68.1590 C.3    10  PRO10       0.0310
     14  CG        15.9700   68.6510   69.2820 C.3    10  PRO10       0.0237
     15  CD        16.2970   67.8110   70.5110 C.3    10  PRO10       0.0939
     16  N         16.5420   64.5650   67.0180 N.am   11  GLY11      -0.1941
     17  CA        17.3060   63.4610   66.4740 C.3    11  GLY11       0.2014
     18  C         17.1440   62.1130   67.1250 C.2    11  GLY11       0.2639
     19  O         17.8530   61.1650   66.6950 O.2    11  GLY11      -0.2714
     20  N         16.3050   61.9160   68.1700 N.am   12  VAL12      -0.1963
     21  CA        16.1540   60.6390   68.7840 C.3    12  VAL12       0.1727
     22  C         15.3290   59.6940   67.8380 C.2    12  VAL12       0.2617
     23  O         15.4440   58.4810   67.9850 O.2    12  VAL12      -0.2715
     24  CB        15.3640   60.4480   70.0910 C.3    12  VAL12       0.0290
     25  CG1       16.2150   60.2070   71.2900 C.3    12  VAL12       0.0023
     26  CG2       14.2430   61.4230   70.2680 C.3    12  VAL12       0.0023
     27  N         14.4530   60.3060   67.0440 N.am   13  GLY13      -0.1940
     28  CA        13.6050   59.5130   66.1750 C.3    13  GLY13       0.2014
     29  C         12.1290   59.7600   66.4410 C.2    13  GLY13       0.2642
     30  O         11.3010   58.9260   66.0710 O.2    13  GLY13      -0.2714
     31  N         11.8130   60.8830   67.0610 N.am   14  LYS14      -0.1917
     32  CA        10.4580   61.2190   67.4270 C.3    14  LYS14       0.1944
     33  C          9.4360   61.1250   66.3250 C.2    14  LYS14       0.2659
     34  O          8.3670   60.5270   66.5630 O.2    14  LYS14      -0.2711
     35  CB        10.4300   62.5620   68.1710 C.2    14  LYS14      -0.0002
     36  CG         9.3460   62.8280   69.1530 C.2    14  LYS14      -0.0270
     37  CD         9.4080   64.1090   69.9410 C.3    14  LYS14       0.0462
     38  CE        10.0840   65.2780   69.3030 C.3    14  LYS14       0.1140
     39  NZ         9.1770   66.3990   68.9210 N.3    14  LYS14      -0.1310
     40  N          9.6240   61.6740   65.1280 N.am   15  SER15      -0.1933
     41  CA         8.5640   61.6230   64.1100 C.3    15  SER15       0.2055
     42  C          8.5010   60.2690   63.4340 C.2    15  SER15       0.2643
     43  O          7.4120   59.8490   63.0160 O.2    15  SER15      -0.2714
     44  CB         8.5950   62.8040   63.1620 C.3    15  SER15       0.2130
     45  OG         9.9080   63.1050   62.7690 O.3    15  SER15      -0.2179
     46  N          9.6540   59.5750   63.3770 N.am   16  THR16      -0.1950
     47  CA         9.6450   58.2220   62.8520 C.3    16  THR16       0.1897
     48  C          8.7740   57.3810   63.8100 C.2    16  THR16       0.2313
     49  O          7.8160   56.7230   63.4050 O.2    16  THR16      -0.2863
     50  CB        11.0090   57.5780   62.7170 C.3    16  THR16       0.1794
     51  OG1       11.8440   58.2920   61.8130 O.3    16  THR16      -0.2208
     52  CG2       10.8550   56.1480   62.1810 C.3    16  THR16       0.0378
     53  N         22.1890   60.1840   63.8100 N.3   132  ARG132     -0.1245
     54  CA        20.8970   60.5190   63.2740 C.3   132  ARG132      0.1563
     55  C         20.6510   61.9840   62.9540 C.2   132  ARG132      0.2260
     56  O         19.7240   62.2870   62.1630 O.2   132  ARG132     -0.2867
     57  CB        19.7740   59.9960   64.1950 C.3   132  ARG132      0.0307
     58  CG        19.8260   58.5570   64.5910 C.3   132  ARG132      0.0489
     59  CD        18.5330   58.0040   65.1480 C.3   132  ARG132      0.2205
     60  NE        18.6700   56.7720   65.8630 N.pl3 132  ARG132     -0.0865
     61  CZ        17.9010   56.0560   66.6430 C.cat 132  ARG132      0.5346
     62  NH1       16.6530   56.3900   66.9430 N.pl3 132  ARG132      0.1354
     63  NH2       18.3190   54.9130   67.2120 N.pl3 132  ARG132      0.1354
     64  N         21.9740   62.8560   59.1160 N.3   135  ARG135     -0.1231
     65  CA        21.0640   62.3950   58.1030 C.3   135  ARG135      0.1694
     66  C         19.7640   63.1680   57.9220 C.2   135  ARG135      0.2592
     67  O         18.8880   62.7110   57.1640 O.2   135  ARG135     -0.2718
     68  CB        20.6830   60.9090   58.3100 C.3   135  ARG135      0.0321
     69  CG        21.3730   60.2030   59.4420 C.3   135  ARG135      0.0489
     70  CD        21.9280   58.8460   59.0950 C.3   135  ARG135      0.2205
     71  NE        21.8370   57.8900   60.1820 N.pl3 135  ARG135     -0.0865
     72  CZ        20.7310   57.2840   60.6030 C.cat 135  ARG135      0.5346
     73  NH1       19.5640   57.5290   60.0150 N.pl3 135  ARG135      0.1354
     74  NH2       20.7990   56.4250   61.6170 N.pl3 135  ARG135      0.1354
     75  N         19.5980   64.2990   58.5720 N.am  136  ASP136     -0.1974
     76  CA        18.4040   65.1320   58.4730 C.3   136  ASP136      0.1709
     77  C         18.8290   66.5920   58.3530 C.2   136  ASP136      0.2293
     78  O         18.9350   67.3030   59.3620 O.2   136  ASP136     -0.2864
     79  CB        17.5120   64.8900   59.6880 C.3   136  ASP136      0.1436
     80  CG        16.1320   65.4980   59.6470 C.2   136  ASP136      0.3671
     81  OD1       15.5600   65.6120   58.5350 O.co2 136  ASP136     -0.2456
     82  OD2       15.5760   65.8750   60.7150 O.co2 136  ASP136     -0.2456
     83  N         16.4590   70.4690   59.0930 N.3   139  ARG139     -0.1245
     84  CA        16.5460   71.2660   60.2980 C.3   139  ARG139      0.1563
     85  C         18.0100   71.4000   60.7430 C.2   139  ARG139      0.2260
     86  O         18.7590   70.4090   60.6920 O.2   139  ARG139     -0.2867
     87  CB        15.7020   70.6790   61.4350 C.3   139  ARG139      0.0307
     88  CG        14.8200   71.7570   62.0770 C.3   139  ARG139      0.0489
     89  CD        13.4010   71.6420   61.5330 C.3   139  ARG139      0.2205
     90  NE        12.4070   71.9010   62.5570 N.pl3 139  ARG139     -0.0865
     91  CZ        12.0740   71.1000   63.5630 C.cat 139  ARG139      0.5346
     92  NH1       12.6500   69.9130   63.7340 N.pl3 139  ARG139      0.1354
     93  NH2       11.1360   71.4920   64.4180 N.pl3 139  ARG139      0.1354
     94  N         14.3800   53.9760   71.8790 N.3   177  ASN177     -0.1225
     95  CA        14.0780   53.8240   70.4360 C.3   177  ASN177      0.1785
     96  C         15.2900   53.0890   69.8100 C.2   177  ASN177      0.2597
     97  O         16.2730   53.6920   69.4200 O.2   177  ASN177     -0.2718
     98  CB        13.7990   55.1260   69.7630 C.3   177  ASN177      0.1169
     99  CG        13.4370   55.0380   68.3000 C.2   177  ASN177      0.2627
    100  OD1       12.8710   54.0510   67.8320 O.2   177  ASN177     -0.2716
    101  ND2       13.7350   56.0770   67.5450 N.am  177  ASN177     -0.0877
    102  N         15.2120   51.7620   69.8000 N.am  178  VAL178     -0.1966
    103  CA        16.2190   50.8330   69.3490 C.3   178  VAL178      0.1727
    104  C         16.6250   51.0220   67.8890 C.2   178  VAL178      0.2616
    105  O         15.7650   51.1650   67.0190 O.2   178  VAL178     -0.2715
    106  CB        15.7490   49.3850   69.5640 C.3   178  VAL178      0.0290
    107  CG1       16.8330   48.4080   69.1300 C.3   178  VAL178      0.0023
    108  CG2       15.3690   49.1290   71.0130 C.3   178  VAL178      0.0023
    109  N         17.9410   51.0410   67.6670 N.am  179  GLU179     -0.1963
    110  CA        18.5050   51.2100   66.3320 C.3   179  GLU179      0.1733
    111  C         18.0930   50.0270   65.4440 C.2   179  GLU179      0.2616
    112  O         18.3090   48.8670   65.7850 O.2   179  GLU179     -0.2715
    113  CB        20.0130   51.3890   66.3560 C.3   179  GLU179      0.0429
    114  CG        20.7630   51.6610   65.0950 C.3   179  GLU179      0.1163
    115  CD        20.5660   52.9750   64.3830 C.2   179  GLU179      0.3649
    116  OE1       19.7640   53.8170   64.8330 O.co2 179  GLU179     -0.2457
    117  OE2       21.1970   53.2670   63.3230 O.co2 179  GLU179     -0.2457
    118  N         17.4660   50.3690   64.3190 N.am  180  GLY180     -0.1955
    119  CA        17.0200   49.4350   63.3310 C.3   180  GLY180      0.1869
    120  C         15.5490   49.1550   63.2650 C.2   180  GLY180      0.2309
    121  O         15.0460   48.7200   62.2180 O.2   180  GLY180     -0.2863
    122  N         12.0090   50.9620   64.6410 N.3   182  PRO182     -0.2116
    123  CA        11.1440   51.9210   65.2590 C.3   182  PRO182      0.1372
    124  C          9.8690   51.3550   65.8400 C.2   182  PRO182      0.2244
    125  O          9.2960   51.9450   66.7690 O.2   182  PRO182     -0.2868
    126  CB        10.7450   52.8720   64.1040 C.3   182  PRO182      0.0268
    127  CG        11.8490   52.6950   63.1150 C.3   182  PRO182      0.0207
    128  CD        12.1850   51.2210   63.1730 C.3   182  PRO182      0.0892
@<TRIPOS>BOND
     1    67    66    2
     2    66    65    1
     3    66    75   am
     4    65    68    1
     5    65    64    1
     6    68    69    1
     7    77    76    1
     8    77    78    2
     9    76    75    1
    10    76    79    1
    11    81    80   ar
    12    83    84    1
    13    70    69    1
    14    70    71    1
    15    80    79    1
    16    80    82   ar
    17    73    72    1
    18    71    72    2
    19    84    85    1
    20    84    87    1
    21    72    74    1
    22    86    85    2
    23    87    88    1
    24    89    88    1
    25    89    90    1
    26    51    50    1
    27    56    55    2
    28    52    50    1
    29   121   120    2
    30    90    91    2
    31    50    47    1
    32    45    44    1
    33    47    46    1
    34    47    48    1
    35    55    54    1
    36    43    42    2
    37   127   128    1
    38   127   126    1
    39    44    41    1
    40   128   122    1
    41   120   119    1
    42    54    53    1
    43    54    57    1
    44   117   115   ar
    45   119   118    1
    46    46    42   am
    47    49    48    2
    48    42    41    1
    49    91    92    1
    50    91    93    1
    51   126   123    1
    52    41    40    1
    53    57    58    1
    54   118   111   am
    55   115   116   ar
    56   115   114    1
    57    58    59    1
    58   122   123    1
    59   114   113    1
    60    40    33   am
    61    59    60    1
    62   123   124    1
    63   111   112    2
    64   111   110    1
    65   124   125    2
    66    60    61    2
    67    30    29    2
    68    28    29    1
    69    28    27    1
    70    33    34    2
    71    33    32    1
    72   110   113    1
    73   110   109    1
    74    29    31   am
    75    17    16    1
    76    17    18    1
    77    61    62    1
    78    61    63    1
    79    19    18    2
    80    16    11   am
    81   105   104    2
    82    27    22   am
    83    31    32    1
    84    18    20   am
    85    32    35    1
    86   101    99   am
    87   109   104   am
    88   100    99    2
    89    22    23    2
    90    22    21    1
    91   104   103    1
    92    11    12    2
    93    11    10    1
    94    13    10    1
    95    13    14    1
    96    20    21    1
    97    35    36    2
    98    99    98    1
    99    10     9    1
   100    21    24    1
   101    39    38    1
   102   107   106    1
   103    36    37    1
   104    14    15    1
   105    38    37    1
   106   103   106    1
   107   103   102    1
   108    97    96    2
   109   106   108    1
   110    98    95    1
   111   102    96   am
   112    96    95    1
   113     9    15    1
   114     9     3   am
   115    24    26    1
   116    24    25    1
   117     4     3    2
   118    95    94    1
   119     3     2    1
   120     2     1    1
   121     2     5    1
   122     8     6    1
   123     6     5    1
   124     5     7    1
