@<TRIPOS>MOLECULE
tmp/1nktA00.pdb
 198 190 0 0 0
SMALL
GASTEIGER

@<TRIPOS>ATOM
      1  N         89.3060  104.5680  216.4090 N.3    95  ASP95      -0.1225
      2  CA        89.8120  105.8580  215.9190 C.3    95  ASP95       0.1805
      3  C         89.1680  106.2460  214.5580 C.2    95  ASP95       0.2598
      4  O         89.7870  106.8960  213.7250 O.2    95  ASP95      -0.2718
      5  CB        91.3440  105.8570  215.8750 C.3    95  ASP95       0.1424
      6  CG        91.9810  105.5970  217.2630 C.2    95  ASP95       0.3668
      7  OD1       91.4950  106.1550  218.2600 O.co2  95  ASP95      -0.2456
      8  OD2       92.9740  104.8700  217.4740 O.co2  95  ASP95      -0.2456
      9  N         87.9250  105.8280  214.3420 N.am   96  GLN96      -0.1965
     10  CA        87.1610  106.2980  213.2120 C.3    96  GLN96       0.1733
     11  C         85.7290  106.4980  213.7000 C.2    96  GLN96       0.2616
     12  O         85.1370  105.6010  214.3010 O.2    96  GLN96      -0.2715
     13  CB        87.2360  105.3270  212.0070 C.3    96  GLN96       0.0408
     14  CG        86.9350  103.8810  212.3370 C.3    96  GLN96       0.0908
     15  CD        87.0340  102.9250  211.1430 C.2    96  GLN96       0.2608
     16  OE1       88.0650  102.8540  210.4680 O.2    96  GLN96      -0.2717
     17  NE2       85.9490  102.1530  210.8990 N.am   96  GLN96      -0.0878
     18  N         85.1730  107.6770  213.4560 N.am   97  ARG97      -0.1964
     19  CA        83.8320  107.9820  213.9120 C.3    97  ARG97       0.1714
     20  C         82.8670  107.8770  212.6870 C.2    97  ARG97       0.2458
     21  O         83.0460  108.5630  211.6650 O.2    97  ARG97      -0.2730
     22  CB        83.8450  109.3590  214.5860 C.3    97  ARG97       0.0347
     23  CG        82.5190  109.9230  215.0360 C.3    97  ARG97       0.0492
     24  CD        82.6500  111.1410  215.9490 C.3    97  ARG97       0.2205
     25  NE        81.3710  111.6880  216.4050 N.pl3  97  ARG97      -0.0865
     26  CZ        80.5240  112.3260  215.6060 C.cat  97  ARG97       0.5346
     27  NH1       80.8110  112.4720  214.3190 N.pl3  97  ARG97       0.1354
     28  NH2       79.3890  112.8180  216.0720 N.pl3  97  ARG97       0.1354
     29  N         81.8780  106.9860  212.7630 N.am   98  PRO98      -0.2716
     30  CA        80.9200  106.8220  211.6670 C.3    98  PRO98       0.1536
     31  C         80.4640  108.1790  211.0840 C.2    98  PRO98       0.2598
     32  O         80.0470  109.0490  211.8690 O.2    98  PRO98      -0.2715
     33  CB        79.7490  106.0960  212.3440 C.3    98  PRO98       0.0310
     34  CG        80.4070  105.2850  213.4270 C.3    98  PRO98       0.0237
     35  CD        81.6110  106.0610  213.8780 C.3    98  PRO98       0.0939
     36  N         80.5540  108.3490  209.7520 N.am   99  PHE99      -0.1974
     37  CA        80.1880  109.6040  209.1000 C.3    99  PHE99       0.1639
     38  C         78.6900  109.7430  209.1730 C.2    99  PHE99       0.2290
     39  O         77.9750  108.7530  209.3730 O.2    99  PHE99      -0.2864
     40  CB        80.5890  109.6390  207.6270 C.3    99  PHE99       0.0560
     41  CG        82.0440  109.4110  207.3710 C.ar   99  PHE99      -0.0200
     42  CD1       83.0170  110.2800  207.8940 C.ar   99  PHE99      -0.0042
     43  CD2       82.4550  108.3380  206.5760 C.ar   99  PHE99      -0.0042
     44  CE1       84.4050  110.0670  207.6410 C.ar   99  PHE99      -0.0003
     45  CE2       83.8290  108.1190  206.3300 C.ar   99  PHE99      -0.0003
     46  CZ        84.8000  108.9880  206.8590 C.ar   99  PHE99      -0.0000
     47  N         77.0630  107.1660  207.1670 N.3   102  GLN102     -0.1245
     48  CA        77.0170  105.8710  207.8320 C.3   102  GLN102      0.1566
     49  C         75.8540  105.8050  208.8240 C.2   102  GLN102      0.2260
     50  O         75.2180  104.7590  208.9590 O.2   102  GLN102     -0.2867
     51  CB        78.3510  105.5580  208.4960 C.3   102  GLN102      0.0367
     52  CG        79.4160  105.3680  207.4620 C.3   102  GLN102      0.0905
     53  CD        80.7810  105.2220  208.0620 C.2   102  GLN102      0.2608
     54  OE1       81.3190  106.1820  208.6090 O.2   102  GLN102     -0.2717
     55  NE2       81.3610  104.0190  207.9590 N.am  102  GLN102     -0.0878
     56  N         81.0160  100.9830  197.3580 N.3   119  THR119     -0.1203
     57  CA        82.3020  100.5270  197.8030 C.3   119  THR119      0.1994
     58  C         83.0610  101.6770  198.4390 C.2   119  THR119      0.2618
     59  O         83.2350  102.7470  197.8240 O.2   119  THR119     -0.2717
     60  CB        83.0850   99.9850  196.6070 C.3   119  THR119      0.1784
     61  OG1       82.4350   98.7970  196.1290 O.3   119  THR119     -0.2211
     62  CG2       84.5250   99.5180  197.0180 C.3   119  THR119      0.0376
     63  N         83.4970  101.4560  199.6830 N.am  120  GLY120     -0.1942
     64  CA        84.4300  102.3650  200.3330 C.3   120  GLY120      0.2014
     65  C         83.7250  103.3350  201.2420 C.2   120  GLY120      0.2639
     66  O         84.3710  104.1640  201.8630 O.2   120  GLY120     -0.2714
     67  N         82.4050  103.2180  201.3360 N.am  121  GLU121     -0.1963
     68  CA        81.6470  104.0990  202.2070 C.3   121  GLU121      0.1733
     69  C         81.6800  103.6360  203.6660 C.2   121  GLU121      0.2617
     70  O         81.2860  104.3820  204.5710 O.2   121  GLU121     -0.2715
     71  CB        80.1990  104.2680  201.7120 C.3   121  GLU121      0.0429
     72  CG        80.0760  105.0310  200.4100 C.3   121  GLU121      0.1163
     73  CD        80.4940  106.4850  200.5290 C.2   121  GLU121      0.3649
     74  OE1       79.8480  107.2160  201.3010 O.co2 121  GLU121     -0.2457
     75  OE2       81.4690  106.8970  199.8640 O.co2 121  GLU121     -0.2457
     76  N         82.1380  102.4060  203.8810 N.am  122  GLY122     -0.1940
     77  CA        82.2870  101.8770  205.2190 C.3   122  GLY122      0.2014
     78  C         81.0610  101.1240  205.7060 C.2   122  GLY122      0.2639
     79  O         80.4880  101.4790  206.7640 O.2   122  GLY122     -0.2714
     80  N         80.6600  100.0940  204.9440 N.am  123  LYS123     -0.1963
     81  CA        79.5130   99.2460  205.2920 C.3   123  LYS123      0.1728
     82  C         79.7760   98.4330  206.5810 C.2   123  LYS123      0.2617
     83  O         78.8350   98.2230  207.3720 O.2   123  LYS123     -0.2715
     84  CB        79.1930   98.2320  204.1930 C.3   123  LYS123      0.0311
     85  CG        78.2060   98.5930  203.1140 C.3   123  LYS123      0.0038
     86  CD        78.8450   98.4440  201.7170 C.3   123  LYS123      0.0206
     87  CE        79.1770   96.9730  201.1720 C.3   123  LYS123      0.1093
     88  NZ        80.1650   95.9550  201.8720 N.3   123  LYS123     -0.1314
     89  N         81.0090   97.9500  206.7650 N.am  124  THR124     -0.1937
     90  CA        81.3580   97.0960  207.8900 C.3   124  THR124      0.2028
     91  C         81.0140   97.7930  209.2120 C.2   124  THR124      0.2642
     92  O         80.3350   97.2210  210.0640 O.2   124  THR124     -0.2714
     93  CB        82.8720   96.7310  207.8630 C.3   124  THR124      0.1808
     94  OG1       83.2710   96.2850  206.5500 O.3   124  THR124     -0.2208
     95  CG2       83.1550   95.5260  208.7700 C.3   124  THR124      0.0379
     96  N         81.4770   99.0360  209.3710 N.am  125  LEU125     -0.1977
     97  CA        81.2200   99.8090  210.5650 C.3   125  LEU125      0.1596
     98  C         79.7730  100.3120  210.5910 C.2   125  LEU125      0.2287
     99  O         79.1870  100.4650  211.6580 O.2   125  LEU125     -0.2864
    100  CB        82.2260  100.9590  210.6520 C.3   125  LEU125      0.0297
    101  CG        82.0490  102.1220  211.6410 C.3   125  LEU125      0.0022
    102  CD1       82.2890  101.6880  213.0900 C.3   125  LEU125      0.0001
    103  CD2       82.9530  103.2790  211.2660 C.3   125  LEU125      0.0001
    104  N         86.9380   88.1920  210.0240 N.3   153  ARG153     -0.1245
    105  CA        87.5100   89.5360  210.2220 C.3   153  ARG153      0.1563
    106  C         86.5580   90.5850  210.7380 C.2   153  ARG153      0.2260
    107  O         86.9460   91.3390  211.6220 O.2   153  ARG153     -0.2867
    108  CB        88.5920   90.0600  209.2070 C.3   153  ARG153      0.0307
    109  CG        88.2440   90.6020  207.8350 C.3   153  ARG153      0.0489
    110  CD        88.2560   92.1330  207.6500 C.3   153  ARG153      0.2205
    111  NE        86.8930   92.6120  207.2730 N.pl3 153  ARG153     -0.0865
    112  CZ        86.5320   93.0470  206.0470 C.cat 153  ARG153      0.5346
    113  NH1       87.4380   93.0880  205.0530 N.pl3 153  ARG153      0.1354
    114  NH2       85.2720   93.4590  205.8200 N.pl3 153  ARG153      0.1354
    115  N         87.0180   92.5640  214.1590 N.3   157  TRP157     -0.1241
    116  CA        87.2400   93.9990  214.0160 C.3   157  TRP157      0.1605
    117  C         86.0800   94.8090  214.6820 C.2   157  TRP157      0.2264
    118  O         86.3190   95.5450  215.6330 O.2   157  TRP157     -0.2867
    119  CB        87.3410   94.2350  212.5080 C.3   157  TRP157      0.0550
    120  CG        87.6960   95.5600  211.9640 C.ar  157  TRP157      0.0003
    121  CD1       88.2670   96.6010  212.6110 C.ar  157  TRP157      0.0946
    122  CD2       87.4960   95.9850  210.6020 C.ar  157  TRP157      0.0152
    123  NE1       88.4350   97.6600  211.7470 N.ar  157  TRP157     -0.2442
    124  CE2       87.9740   97.3080  210.5040 C.ar  157  TRP157      0.0810
    125  CE3       86.9370   95.3790  209.4500 C.ar  157  TRP157      0.0012
    126  CZ2       87.9260   98.0420  209.3050 C.ar  157  TRP157      0.0191
    127  CZ3       86.8870   96.1040  208.2590 C.ar  157  TRP157      0.0001
    128  CH2       87.3770   97.4230  208.1980 C.ar  157  TRP157      0.0015
    129  N         75.3690   91.3880  204.6820 N.3   224  ASP224     -0.1239
    130  CA        76.3650   92.2170  204.0460 C.3   224  ASP224      0.1674
    131  C         76.4640   91.6390  202.6380 C.2   224  ASP224      0.2266
    132  O         76.1430   90.4720  202.4540 O.2   224  ASP224     -0.2867
    133  CB        77.6970   92.0670  204.7980 C.3   224  ASP224      0.1410
    134  CG        78.7110   93.1540  204.4500 C.2   224  ASP224      0.3668
    135  OD1       78.4800   93.9490  203.5080 O.co2 224  ASP224     -0.2456
    136  OD2       79.7950   93.2890  205.0660 O.co2 224  ASP224     -0.2456
    137  N         85.7470   92.5370  199.4380 N.3   507  GLY507     -0.1225
    138  CA        85.5600   92.9450  200.8190 C.3   507  GLY507      0.1811
    139  C         86.7220   93.7090  201.4230 C.2   507  GLY507      0.2280
    140  O         86.6070   94.2130  202.5520 O.2   507  GLY507     -0.2866
    141  N         88.8260   96.9180  200.9010 N.3   509  ASP509     -0.1239
    142  CA        88.8280   98.1770  200.1670 C.3   509  ASP509      0.1674
    143  C         90.2320   98.5590  199.6850 C.2   509  ASP509      0.2266
    144  O         91.2310   98.3590  200.3910 O.2   509  ASP509     -0.2867
    145  CB        88.2680   99.2470  201.0820 C.3   509  ASP509      0.1410
    146  CG        87.8560  100.4920  200.3540 C.2   509  ASP509      0.3668
    147  OD1       87.6500  100.4560  199.1170 O.co2 509  ASP509     -0.2456
    148  OD2       87.7110  101.5760  200.9520 O.co2 509  ASP509     -0.2456
    149  N         92.4660  101.1870  199.2590 N.3   511  VAL511     -0.1245
    150  CA        92.4770  102.5550  199.7380 C.3   511  VAL511      0.1561
    151  C         93.7840  103.1210  199.2450 C.2   511  VAL511      0.2260
    152  O         94.8220  102.5080  199.4800 O.2   511  VAL511     -0.2867
    153  CB        92.3740  102.5710  201.2930 C.3   511  VAL511      0.0252
    154  CG1       92.6790  103.9350  201.8760 C.3   511  VAL511      0.0019
    155  CG2       91.0140  102.1160  201.7050 C.3   511  VAL511      0.0019
    156  N         95.2680  100.4350  202.6180 N.3   515  ASN515     -0.1225
    157  CA        94.1260  100.2610  203.5440 C.3   515  ASN515      0.1785
    158  C         94.6470  100.2370  204.9630 C.2   515  ASN515      0.2597
    159  O         95.4140   99.3400  205.3910 O.2   515  ASN515     -0.2718
    160  CB        93.3540   98.9770  203.2690 C.3   515  ASN515      0.1169
    161  CG        92.0450   98.8800  204.0880 C.2   515  ASN515      0.2627
    162  OD1       92.0210   99.1570  205.2920 O.2   515  ASN515     -0.2716
    163  ND2       90.9720   98.4640  203.4380 N.am  515  ASN515     -0.0877
    164  N         94.2710  101.2600  205.6990 N.am  516  VAL516     -0.1966
    165  CA        95.0720  101.6300  206.8520 C.3   516  VAL516      0.1727
    166  C         94.7250  100.6920  208.0090 C.2   516  VAL516      0.2616
    167  O         95.6280  100.1050  208.6300 O.2   516  VAL516     -0.2715
    168  CB        94.9350  103.1510  207.1250 C.3   516  VAL516      0.0290
    169  CG1       94.9930  103.4740  208.5950 C.3   516  VAL516      0.0023
    170  CG2       96.0250  103.8860  206.3610 C.3   516  VAL516      0.0023
    171  N         93.4260  100.5010  208.2280 N.am  517  ASP517     -0.1971
    172  CA        92.9600   99.5250  209.2020 C.3   517  ASP517      0.1709
    173  C         93.4120   98.0780  208.9200 C.2   517  ASP517      0.2293
    174  O         93.8210   97.3630  209.8480 O.2   517  ASP517     -0.2864
    175  CB        91.4480   99.6370  209.3630 C.3   517  ASP517      0.1436
    176  CG        91.0140  101.0650  209.7380 C.2   517  ASP517      0.3671
    177  OD1       90.8270  101.3510  210.9540 O.co2 517  ASP517     -0.2456
    178  OD2       90.8480  101.9810  208.8870 O.co2 517  ASP517     -0.2456
    179  N         99.1390  105.3880  209.0960 N.3   550  LYS550     -0.1245
    180  CA        98.4710  106.4590  208.3240 C.3   550  LYS550      0.1561
    181  C         99.4630  107.4260  207.6800 C.2   550  LYS550      0.2260
    182  O         99.2520  107.8750  206.5590 O.2   550  LYS550     -0.2867
    183  CB        97.5410  107.3240  209.1790 C.3   550  LYS550      0.0271
    184  CG        96.2900  106.7220  209.6760 C.3   550  LYS550      0.0035
    185  CD        95.5590  107.8050  210.4420 C.3   550  LYS550      0.0206
    186  CE        94.1780  108.0990  209.8460 C.3   550  LYS550      0.1093
    187  NZ        93.1960  108.0430  210.9530 N.3   550  LYS550     -0.1314
    188  N         86.7390  105.8680  195.4540 N.3   589  ARG589     -0.1245
    189  CA        86.0870  105.9070  196.7370 C.3   589  ARG589      0.1563
    190  C         86.3820  107.2240  197.4640 C.2   589  ARG589      0.2260
    191  O         87.4310  107.8670  197.2450 O.2   589  ARG589     -0.2867
    192  CB        86.5710  104.7260  197.5900 C.3   589  ARG589      0.0307
    193  CG        88.0600  104.7500  197.9100 C.3   589  ARG589      0.0489
    194  CD        88.3820  103.9610  199.1520 C.3   589  ARG589      0.2205
    195  NE        88.8840  104.8020  200.2360 N.pl3 589  ARG589     -0.0865
    196  CZ        88.4400  104.7920  201.4910 C.cat 589  ARG589      0.5346
    197  NH1       87.4530  103.9940  201.8500 N.pl3 589  ARG589      0.1354
    198  NH2       88.9990  105.5920  202.4020 N.pl3 589  ARG589      0.1354
@<TRIPOS>BOND
     1   188   189    1
     2    61    60    1
     3    60    62    1
     4    60    57    1
     5   189   190    1
     6   189   192    1
     7   191   190    2
     8    56    57    1
     9   192   193    1
    10    57    58    1
    11    59    58    2
    12   193   194    1
    13    58    63   am
    14   147   146   ar
    15   194   195    1
    16   151   152    2
    17   151   150    1
    18   149   150    1
    19   137   138    1
    20    63    64    1
    21   143   142    1
    22   143   144    2
    23   150   153    1
    24    75    73   ar
    25   142   141    1
    26   142   145    1
    27   195   196    2
    28    64    65    1
    29   146   148   ar
    30   146   145    1
    31    72    73    1
    32    72    71    1
    33    73    74   ar
    34   138   139    1
    35    87    86    1
    36    87    88    1
    37    65    67   am
    38    65    66    2
    39   153   155    1
    40   153   154    1
    41    67    68    1
    42   139   140    2
    43   196   197    1
    44   196   198    1
    45    71    68    1
    46    86    85    1
    47    68    69    1
    48   132   131    2
    49   156   157    1
    50   131   130    1
    51    85    84    1
    52   160   157    1
    53   160   161    1
    54   163   161   am
    55   135   134   ar
    56   157   158    1
    57    69    76   am
    58    69    70    2
    59    76    77    1
    60   130   129    1
    61   130   133    1
    62   161   162    2
    63    84    81    1
    64   134   133    1
    65   134   136   ar
    66    80    81    1
    67    80    78   am
    68   158   159    2
    69   158   164   am
    70   113   112    1
    71    77    78    1
    72    81    82    1
    73   164   165    1
    74    78    79    2
    75   114   112    1
    76   112   111    2
    77    45    43   ar
    78    45    46   ar
    79   170   168    1
    80    94    93    1
    81   182   181    2
    82    43    41   ar
    83    82    89   am
    84    82    83    2
    85    89    90    1
    86   165   168    1
    87   165   166    1
    88    46    44   ar
    89   168   169    1
    90    47    48    1
    91   111   110    1
    92    41    40    1
    93    41    42   ar
    94    52    53    1
    95    52    51    1
    96    40    37    1
    97    44    42   ar
    98   110   109    1
    99   181   180    1
   100    48    51    1
   101    48    49    1
   102   109   108    1
   103    93    90    1
   104    93    95    1
   105    90    91    1
   106    55    53   am
   107   166   171   am
   108   166   167    2
   109    53    54    2
   110   128   127   ar
   111   128   126   ar
   112   171   172    1
   113   127   125   ar
   114   180   179    1
   115   180   183    1
   116    49    50    2
   117   178   176   ar
   118   173   172    1
   119   173   174    2
   120    37    38    1
   121    37    36    1
   122    38    39    2
   123   183   184    1
   124   172   175    1
   125   108   105    1
   126    91    96   am
   127    91    92    2
   128   126   124   ar
   129   175   176    1
   130    96    97    1
   131   125   122   ar
   132   184   185    1
   133   176   177   ar
   134    36    31   am
   135   186   185    1
   136   186   187    1
   137   104   105    1
   138   105   106    1
   139    16    15    2
   140   124   122   ar
   141   124   123   ar
   142    97    98    1
   143    97   100    1
   144    98    99    2
   145   122   120   ar
   146   100   101    1
   147   106   107    2
   148    17    15   am
   149    31    30    1
   150    31    32    2
   151    15    14    1
   152   103   101    1
   153   101   102    1
   154    21    20    2
   155    30    33    1
   156    30    29    1
   157   123   121   ar
   158   120   119    1
   159   120   121   ar
   160    13    14    1
   161    13    10    1
   162    33    34    1
   163   119   116    1
   164    20    29   am
   165    20    19    1
   166    29    35    1
   167    10    11    1
   168    10     9    1
   169    34    35    1
   170    18    11   am
   171    18    19    1
   172    11    12    2
   173     4     3    2
   174    19    22    1
   175   116   115    1
   176   116   117    1
   177    27    26    1
   178     9     3   am
   179     3     2    1
   180    22    23    1
   181   117   118    2
   182    23    24    1
   183    26    28    1
   184    26    25    2
   185     5     2    1
   186     5     6    1
   187     2     1    1
   188    24    25    1
   189     6     8   ar
   190     6     7   ar
