@<TRIPOS>MOLECULE
tmp/1nl4B01.pdb
 198 196 0 0 0
SMALL
GASTEIGER

@<TRIPOS>ATOM
      1  N         43.0810   60.0380   -1.2860 N.3    71  TYR71      -0.1241
      2  CA        44.4410   59.8670   -0.8110 C.3    71  TYR71       0.1605
      3  C         44.6120   60.0760    0.6620 C.2    71  TYR71       0.2264
      4  O         45.7360   60.0670    1.1840 O.2    71  TYR71      -0.2867
      5  CB        45.3410   60.8200   -1.5570 C.3    71  TYR71       0.0534
      6  CG        45.8450   60.1410   -2.7800 C.ar   71  TYR71      -0.0201
      7  CD1       45.1170   60.1550   -3.9830 C.ar   71  TYR71      -0.0009
      8  CD2       47.0060   59.3830   -2.7150 C.ar   71  TYR71      -0.0009
      9  CE1       45.5680   59.4040   -5.0850 C.ar   71  TYR71       0.0417
     10  CE2       47.4460   58.6550   -3.7830 C.ar   71  TYR71       0.0417
     11  CZ        46.7400   58.6570   -4.9740 C.ar   71  TYR71       0.1957
     12  OH        47.2210   57.9310   -6.0260 O.3    71  TYR71      -0.2866
     13  N         43.9700   58.0910    2.8550 N.3    73  CYS73      -0.1221
     14  CA        44.5700   56.8580    3.3540 C.3    73  CYS73       0.1808
     15  C         46.0860   56.8790    3.3350 C.2    73  CYS73       0.2601
     16  O         46.7300   55.9040    3.6750 O.2    73  CYS73      -0.2717
     17  CB        44.1320   55.6810    2.4740 C.3    73  CYS73       0.0970
     18  SG        45.0490   55.5520    0.8630 S.3    73  CYS73      -0.0800
     19  N         46.6790   57.9880    2.9750 N.am   74  LEU74      -0.1979
     20  CA        48.1040   57.9580    2.8190 C.3    74  LEU74       0.1596
     21  C         48.6460   59.1710    3.5090 C.2    74  LEU74       0.2287
     22  O         49.8350   59.5240    3.4400 O.2    74  LEU74      -0.2864
     23  CB        48.3300   57.9850    1.3170 C.3    74  LEU74       0.0297
     24  CG        49.3660   57.0460    0.6270 C.3    74  LEU74       0.0022
     25  CD1       50.4990   57.8280   -0.0600 C.3    74  LEU74       0.0001
     26  CD2       49.8970   56.0760    1.5830 C.3    74  LEU74       0.0001
     27  N         52.0940   59.0550    4.5580 N.3    77  SER77      -0.1217
     28  CA        53.1440   58.5260    3.7180 C.3    77  SER77       0.1889
     29  C         53.4720   59.5250    2.6530 C.2    77  SER77       0.2288
     30  O         53.9220   59.1710    1.5670 O.2    77  SER77      -0.2866
     31  CB        52.6610   57.2130    3.1280 C.3    77  SER77       0.2089
     32  OG        52.2970   56.3490    4.1920 O.3    77  SER77      -0.2183
     33  N         56.5240   59.5530    0.6270 N.3    80  TRP80      -0.1241
     34  CA        56.4770   58.4730   -0.3350 C.3    80  TRP80       0.1605
     35  C         55.9290   58.9540   -1.6600 C.2    80  TRP80       0.2264
     36  O         56.4970   58.6830   -2.7280 O.2    80  TRP80      -0.2867
     37  CB        55.6130   57.3740    0.2210 C.3    80  TRP80       0.0550
     38  CG        56.3840   56.4800    1.0900 C.ar   80  TRP80       0.0003
     39  CD1       56.2610   56.3250    2.4440 C.ar   80  TRP80       0.0946
     40  CD2       57.3400   55.5140    0.6560 C.ar   80  TRP80       0.0152
     41  NE1       57.0870   55.3090    2.8780 N.ar   80  TRP80      -0.2442
     42  CE2       57.7650   54.8010    1.8010 C.ar   80  TRP80       0.0810
     43  CE3       57.8880   55.1850   -0.5870 C.ar   80  TRP80       0.0012
     44  CZ2       58.7050   53.7690    1.7280 C.ar   80  TRP80       0.0191
     45  CZ3       58.8230   54.1610   -0.6560 C.ar   80  TRP80       0.0001
     46  CH2       59.2200   53.4660    0.4930 C.ar   80  TRP80       0.0015
     47  N         57.8180   58.4470   -5.1050 N.3    84  TRP84      -0.1241
     48  CA        57.2140   57.8060   -6.2270 C.3    84  TRP84       0.1605
     49  C         57.1290   58.7520   -7.3840 C.2    84  TRP84       0.2264
     50  O         57.7230   58.5230   -8.4310 O.2    84  TRP84      -0.2867
     51  CB        55.8320   57.3840   -5.8650 C.3    84  TRP84       0.0550
     52  CG        55.8010   56.4050   -4.8120 C.ar   84  TRP84       0.0003
     53  CD1       56.7410   55.4490   -4.5400 C.ar   84  TRP84       0.0946
     54  CD2       54.7060   56.1560   -3.9600 C.ar   84  TRP84       0.0152
     55  NE1       56.2760   54.5970   -3.5680 N.ar   84  TRP84      -0.2442
     56  CE2       55.0180   55.0090   -3.1910 C.ar   84  TRP84       0.0810
     57  CE3       53.4660   56.7810   -3.7680 C.ar   84  TRP84       0.0012
     58  CZ2       54.1460   54.4710   -2.2510 C.ar   84  TRP84       0.0191
     59  CZ3       52.5920   56.2540   -2.8400 C.ar   84  TRP84       0.0001
     60  CH2       52.9390   55.1040   -2.0870 C.ar   84  TRP84       0.0015
     61  N         60.2770   54.1690    6.9560 N.3   129  ALA129     -0.1245
     62  CA        59.7130   54.1550    5.6060 C.3   129  ALA129      0.1562
     63  C         59.7850   55.5340    5.0070 C.2   129  ALA129      0.2260
     64  O         60.4810   55.7570    4.0160 O.2   129  ALA129     -0.2867
     65  CB        58.2820   53.7030    5.6450 C.3   129  ALA129      0.0290
     66  N         62.1490   45.3900    6.1170 N.3   180  ARG180     -0.1245
     67  CA        62.0370   46.7480    5.6000 C.3   180  ARG180      0.1563
     68  C         63.0180   47.6740    6.3220 C.2   180  ARG180      0.2260
     69  O         63.8650   48.3350    5.6970 O.2   180  ARG180     -0.2867
     70  CB        60.6040   47.2450    5.7820 C.3   180  ARG180      0.0307
     71  CG        59.6380   46.4380    4.9300 C.3   180  ARG180      0.0489
     72  CD        58.1850   46.8260    5.1010 C.3   180  ARG180      0.2205
     73  NE        57.7350   46.6840    6.4790 N.pl3 180  ARG180     -0.0865
     74  CZ        57.0120   47.6010    7.1110 C.cat 180  ARG180      0.5346
     75  NH1       56.6420   47.4030    8.3680 N.pl3 180  ARG180      0.1354
     76  NH2       56.6570   48.7170    6.4800 N.pl3 180  ARG180      0.1354
     77  N         60.0440   41.7000    0.6220 N.3   229  TYR229     -0.1241
     78  CA        61.0160   41.5280    1.6860 C.3   229  TYR229      0.1605
     79  C         62.3030   40.9970    1.1080 C.2   229  TYR229      0.2264
     80  O         63.3870   41.3650    1.5550 O.2   229  TYR229     -0.2867
     81  CB        60.4810   40.5680    2.7610 C.3   229  TYR229      0.0534
     82  CG        59.3790   41.1660    3.6220 C.ar  229  TYR229     -0.0201
     83  CD1       58.1680   40.5010    3.8120 C.ar  229  TYR229     -0.0009
     84  CD2       59.5470   42.4060    4.2390 C.ar  229  TYR229     -0.0009
     85  CE1       57.1470   41.0580    4.5990 C.ar  229  TYR229      0.0417
     86  CE2       58.5390   42.9750    5.0290 C.ar  229  TYR229      0.0417
     87  CZ        57.3360   42.2990    5.2050 C.ar  229  TYR229      0.1957
     88  OH        56.3250   42.8640    5.9740 O.3   229  TYR229     -0.2866
     89  N         51.5430   40.9430  -10.2010 N.3   275  ASP275     -0.1239
     90  CA        51.3110   42.2900   -9.6920 C.3   275  ASP275      0.1674
     91  C         52.4120   43.2360  -10.1500 C.2   275  ASP275      0.2266
     92  O         53.5690   43.1350   -9.7260 O.2   275  ASP275     -0.2867
     93  CB        51.2390   42.3100   -8.1770 C.3   275  ASP275      0.1410
     94  CG        50.9110   43.6600   -7.6610 C.2   275  ASP275      0.3668
     95  OD1       50.7790   44.5820   -8.4970 O.co2 275  ASP275     -0.2456
     96  OD2       50.7850   43.7940   -6.4340 O.co2 275  ASP275     -0.2456
     97  N         53.8000   45.9310   -9.4340 N.3   277  CYS277     -0.1221
     98  CA        54.8010   46.4100   -8.4860 C.3   277  CYS277      0.1808
     99  C         55.9650   45.4440   -8.3720 C.2   277  CYS277      0.2601
    100  O         57.1280   45.8540   -8.2860 O.2   277  CYS277     -0.2717
    101  CB        54.1610   46.6210   -7.1140 C.3   277  CYS277      0.0970
    102  SG        53.3380   45.1740   -6.4930 S.3   277  CYS277     -0.0800
    103  N         55.6580   44.1560   -8.3920 N.am  278  TYR278     -0.1976
    104  CA        56.7070   43.1670   -8.2780 C.3   278  TYR278      0.1639
    105  C         57.5750   43.1720   -9.5020 C.2   278  TYR278      0.2290
    106  O         58.5150   42.3900   -9.6190 O.2   278  TYR278     -0.2864
    107  CB        56.1160   41.7890   -8.0340 C.3   278  TYR278      0.0560
    108  CG        55.5880   41.6760   -6.6320 C.ar  278  TYR278     -0.0198
    109  CD1       54.2260   41.5820   -6.3950 C.ar  278  TYR278     -0.0009
    110  CD2       56.4510   41.7240   -5.5360 C.ar  278  TYR278     -0.0009
    111  CE1       53.7280   41.5440   -5.1120 C.ar  278  TYR278      0.0417
    112  CE2       55.9640   41.6860   -4.2430 C.ar  278  TYR278      0.0417
    113  CZ        54.5970   41.5980   -4.0420 C.ar  278  TYR278      0.1957
    114  OH        54.0670   41.5840   -2.7730 O.3   278  TYR278     -0.2866
    115  N         60.2730   44.9140   -7.2930 N.3   281  TRP281     -0.1241
    116  CA        60.6800   44.1390   -6.1370 C.3   281  TRP281      0.1605
    117  C         61.2560   42.7920   -6.5190 C.2   281  TRP281      0.2264
    118  O         62.2660   42.3770   -5.9670 O.2   281  TRP281     -0.2867
    119  CB        59.5150   43.9280   -5.1760 C.3   281  TRP281      0.0550
    120  CG        58.9090   45.1890   -4.6800 C.ar  281  TRP281      0.0003
    121  CD1       57.6020   45.5230   -4.7420 C.ar  281  TRP281      0.0946
    122  CD2       59.5800   46.2860   -4.0360 C.ar  281  TRP281      0.0152
    123  NE1       57.3990   46.7530   -4.1790 N.ar  281  TRP281     -0.2442
    124  CE2       58.5910   47.2440   -3.7370 C.ar  281  TRP281      0.0810
    125  CE3       60.9070   46.5490   -3.6820 C.ar  281  TRP281      0.0012
    126  CZ2       58.8860   48.4480   -3.0980 C.ar  281  TRP281      0.0191
    127  CZ3       61.2030   47.7560   -3.0420 C.ar  281  TRP281      0.0001
    128  CH2       60.1930   48.6880   -2.7600 C.ar  281  TRP281      0.0015
    129  N         48.4160   47.6590  -10.8530 N.3   330  ASP330     -0.1239
    130  CA        48.6560   46.2870  -10.4320 C.3   330  ASP330      0.1674
    131  C         48.5230   45.3640  -11.6130 C.2   330  ASP330      0.2266
    132  O         49.4960   44.7490  -12.0500 O.2   330  ASP330     -0.2867
    133  CB        47.6430   45.8480   -9.3800 C.3   330  ASP330      0.1410
    134  CG        47.8000   44.3760   -8.9890 C.2   330  ASP330      0.3668
    135  OD1       48.2520   43.5500   -9.8170 O.co2 330  ASP330     -0.2456
    136  OD2       47.4710   44.0420   -7.8320 O.co2 330  ASP330     -0.2456
    137  N         42.4960   46.6530  -11.9680 N.3   334  LYS334     -0.1245
    138  CA        42.9280   47.3810  -10.7830 C.3   334  LYS334      0.1561
    139  C         43.0920   48.8710  -11.0550 C.2   334  LYS334      0.2260
    140  O         43.4320   49.2710  -12.1700 O.2   334  LYS334     -0.2867
    141  CB        44.2360   46.7940  -10.2780 C.3   334  LYS334      0.0271
    142  CG        44.1340   45.3100   -9.9880 C.3   334  LYS334      0.0035
    143  CD        43.1790   45.0210   -8.8300 C.3   334  LYS334      0.0206
    144  CE        43.6490   43.7850   -8.0600 C.3   334  LYS334      0.1093
    145  NZ        43.4910   43.8370   -6.5720 N.3   334  LYS334     -0.1314
    146  N         47.6130   54.2420   -9.2470 N.3   337  ASP337     -0.1225
    147  CA        48.1600   54.9350   -8.0930 C.3   337  ASP337      0.1805
    148  C         49.6340   55.1300   -8.3260 C.2   337  ASP337      0.2598
    149  O         50.2620   54.4300   -9.1230 O.2   337  ASP337     -0.2718
    150  CB        47.9600   54.1370   -6.8110 C.3   337  ASP337      0.1424
    151  CG        48.5040   52.7330   -6.9130 C.2   337  ASP337      0.3668
    152  OD1       49.7410   52.5530   -6.8340 O.co2 337  ASP337     -0.2456
    153  OD2       47.6850   51.8040   -7.0740 O.co2 337  ASP337     -0.2456
    154  N         50.1960   56.0740   -7.6030 N.am  338  PHE338     -0.1962
    155  CA        51.5890   56.3810   -7.7670 C.3   338  PHE338      0.1771
    156  C         52.5330   55.2850   -7.3490 C.2   338  PHE338      0.2620
    157  O         53.6350   55.1840   -7.8750 O.2   338  PHE338     -0.2715
    158  CB        51.8380   57.6740   -7.0420 C.3   338  PHE338      0.0574
    159  CG        50.8020   58.6940   -7.3560 C.ar  338  PHE338     -0.0200
    160  CD1       49.8290   59.0320   -6.4320 C.ar  338  PHE338     -0.0042
    161  CD2       50.7720   59.2900   -8.6150 C.ar  338  PHE338     -0.0042
    162  CE1       48.8340   59.9420   -6.7590 C.ar  338  PHE338     -0.0003
    163  CE2       49.7750   60.2020   -8.9490 C.ar  338  PHE338     -0.0003
    164  CZ        48.8090   60.5310   -8.0130 C.ar  338  PHE338     -0.0000
    165  N         52.1090   54.4380   -6.4260 N.am  339  TYR339     -0.1960
    166  CA        52.9830   53.3600   -6.0180 C.3   339  TYR339      0.1771
    167  C         53.2650   52.4670   -7.2260 C.2   339  TYR339      0.2619
    168  O         54.4240   52.2680   -7.6000 O.2   339  TYR339     -0.2715
    169  CB        52.3420   52.5600   -4.8860 C.3   339  TYR339      0.0574
    170  CG        52.9520   51.2120   -4.6340 C.ar  339  TYR339     -0.0198
    171  CD1       54.2270   51.0960   -4.1010 C.ar  339  TYR339     -0.0009
    172  CD2       52.2490   50.0510   -4.9330 C.ar  339  TYR339     -0.0009
    173  CE1       54.7920   49.8650   -3.8750 C.ar  339  TYR339      0.0417
    174  CE2       52.8050   48.8070   -4.7120 C.ar  339  TYR339      0.0417
    175  CZ        54.0820   48.7260   -4.1850 C.ar  339  TYR339      0.1957
    176  OH        54.6710   47.5000   -4.0040 O.3   339  TYR339     -0.2866
    177  N         52.2180   51.9520   -7.8610 N.am  340  HIS340     -0.1973
    178  CA        52.4190   51.0800   -9.0140 C.3   340  HIS340      0.1656
    179  C         53.0120   51.8270  -10.1820 C.2   340  HIS340      0.2291
    180  O         53.7780   51.2840  -10.9760 O.2   340  HIS340     -0.2864
    181  CB        51.1030   50.4430   -9.4180 C.3   340  HIS340      0.0771
    182  CG        50.6450   49.3890   -8.4680 C.ar  340  HIS340      0.0820
    183  ND1       49.8080   49.6670   -7.4100 N.ar  340  HIS340     -0.2267
    184  CD2       50.9130   48.0660   -8.4070 C.ar  340  HIS340      0.1154
    185  CE1       49.5770   48.5510   -6.7330 C.ar  340  HIS340      0.1986
    186  NE2       50.2400   47.5640   -7.3200 N.ar  340  HIS340     -0.2212
    187  N         56.6560   51.8150   -9.5650 N.3   343  TYR343     -0.1241
    188  CA        57.3340   50.5230   -9.6500 C.3   343  TYR343      0.1605
    189  C         57.2080   49.7540  -10.9550 C.2   343  TYR343      0.2264
    190  O         58.0560   48.9200  -11.2850 O.2   343  TYR343     -0.2867
    191  CB        56.9030   49.6650   -8.4590 C.3   343  TYR343      0.0534
    192  CG        57.5270   50.1770   -7.1760 C.ar  343  TYR343     -0.0201
    193  CD1       56.7550   50.7760   -6.1710 C.ar  343  TYR343     -0.0009
    194  CD2       58.9150   50.1240   -6.9970 C.ar  343  TYR343     -0.0009
    195  CE1       57.3610   51.3220   -5.0170 C.ar  343  TYR343      0.0417
    196  CE2       59.5230   50.6600   -5.8600 C.ar  343  TYR343      0.0417
    197  CZ        58.7460   51.2560   -4.8770 C.ar  343  TYR343      0.1957
    198  OH        59.3790   51.7980   -3.7780 O.3   343  TYR343     -0.2866
@<TRIPOS>BOND
     1   140   139    2
     2   132   131    2
     3   137   138    1
     4   131   130    1
     5   190   189    2
     6   139   138    1
     7   180   179    2
     8   189   188    1
     9   129   130    1
    10   138   141    1
    11   130   133    1
    12   141   142    1
    13    89    90    1
    14   179   178    1
    15    91    92    2
    16    91    90    1
    17   142   143    1
    18   135   134   ar
    19    90    93    1
    20   188   187    1
    21   188   191    1
    22   106   105    2
    23   105   104    1
    24    97    98    1
    25   181   178    1
    26   181   182    1
    27   133   134    1
    28   146   147    1
    29   149   148    2
    30   178   177    1
    31   134   136   ar
    32   163   161   ar
    33   163   164   ar
    34   143   144    1
    35   161   159   ar
    36    95    94   ar
    37    98    99    1
    38    98   101    1
    39   182   184   ar
    40   182   183   ar
    41   191   192    1
    42    50    49    2
    43   184   186   ar
    44   103    99   am
    45   103   104    1
    46    99   100    2
    47   148   147    1
    48   148   154   am
    49   104   107    1
    50    93    94    1
    51   147   150    1
    52   144   145    1
    53   107   108    1
    54   164   162   ar
    55   157   156    2
    56   177   167   am
    57   155   154    1
    58   155   156    1
    59   155   158    1
    60    94    96   ar
    61   168   167    2
    62   183   185   ar
    63    49    48    1
    64   159   158    1
    65   159   160   ar
    66   156   165   am
    67   186   185   ar
    68   115   116    1
    69   167   166    1
    70   192   194   ar
    71   192   193   ar
    72   101   102    1
    73   153   151   ar
    74   194   196   ar
    75   151   152   ar
    76   151   150    1
    77   162   160   ar
    78   108   109   ar
    79   108   110   ar
    80   117   116    1
    81   117   118    2
    82   165   166    1
    83   109   111   ar
    84    48    51    1
    85    48    47    1
    86   193   195   ar
    87   116   119    1
    88    12    11    1
    89   166   169    1
    90    51    52    1
    91   196   197   ar
    92   110   112   ar
    93   119   120    1
    94   111   113   ar
    95     9    11   ar
    96     9     7   ar
    97   195   197   ar
    98    11    10   ar
    99   172   174   ar
   100   172   170   ar
   101   169   170    1
   102   197   198    1
   103    52    53   ar
   104    52    54   ar
   105   121   120   ar
   106   121   123   ar
   107   174   175   ar
   108   120   122   ar
   109   170   171   ar
   110    53    55   ar
   111   112   113   ar
   112   175   176    1
   113   175   173   ar
   114   123   124   ar
   115   171   173   ar
   116   113   114    1
   117   122   124   ar
   118   122   125   ar
   119     7     6   ar
   120    54    57   ar
   121    54    56   ar
   122    10     8   ar
   123    57    59   ar
   124   124   126   ar
   125   125   127   ar
   126    55    56   ar
   127    56    58   ar
   128   126   128   ar
   129   127   128   ar
   130    59    60   ar
   131     6     8   ar
   132     6     5    1
   133    36    35    2
   134    58    60   ar
   135    35    34    1
   136     5     2    1
   137     1     2    1
   138     2     3    1
   139    45    43   ar
   140    45    46   ar
   141    43    40   ar
   142    34    37    1
   143    34    33    1
   144    25    24    1
   145    37    38    1
   146    46    44   ar
   147    77    78    1
   148    24    23    1
   149    24    26    1
   150    40    38   ar
   151    40    42   ar
   152     3     4    2
   153    18    17    1
   154    38    39   ar
   155    79    80    2
   156    79    78    1
   157    23    20    1
   158    30    29    2
   159    78    81    1
   160    44    42   ar
   161    42    41   ar
   162    39    41   ar
   163    17    14    1
   164    29    28    1
   165    81    82    1
   166    20    19    1
   167    20    21    1
   168    13    14    1
   169    19    15   am
   170    31    28    1
   171    31    32    1
   172    15    14    1
   173    15    16    2
   174    22    21    2
   175    82    83   ar
   176    82    84   ar
   177    28    27    1
   178    83    85   ar
   179    64    63    2
   180    84    86   ar
   181    85    87   ar
   182    71    72    1
   183    71    70    1
   184    63    62    1
   185    86    87   ar
   186    72    73    1
   187    87    88    1
   188    67    70    1
   189    67    66    1
   190    67    68    1
   191    62    65    1
   192    62    61    1
   193    69    68    2
   194    73    74    2
   195    76    74    1
   196    74    75    1
