@<TRIPOS>MOLECULE
tmp/1nl6B00.pdb
 218 216 0 0 0
SMALL
GASTEIGER

@<TRIPOS>ATOM
      1  N          6.5330  -14.5480   54.1730 N.3    18  ASN18      -0.1225
      2  CA         7.9530  -14.7450   54.4490 C.3    18  ASN18       0.1785
      3  C          8.2570  -14.3460   55.8840 C.2    18  ASN18       0.2597
      4  O          8.1320  -13.1810   56.2380 O.2    18  ASN18      -0.2718
      5  CB         8.7810  -13.9010   53.4600 C.3    18  ASN18       0.1169
      6  CG        10.2820  -13.9800   53.7200 C.2    18  ASN18       0.2627
      7  OD1       10.8510  -15.0580   53.9230 O.2    18  ASN18      -0.2716
      8  ND2       10.9270  -12.8280   53.6980 N.am   18  ASN18      -0.0877
      9  N          8.6770  -15.3050   56.7020 N.am   19  GLN19      -0.1965
     10  CA         8.9580  -15.0130   58.1050 C.3    19  GLN19       0.1733
     11  C         10.1910  -14.1540   58.4170 C.2    19  GLN19       0.2617
     12  O         10.3830  -13.7300   59.5580 O.2    19  GLN19      -0.2715
     13  CB         9.0060  -16.3220   58.9090 C.3    19  GLN19       0.0408
     14  CG         9.9630  -17.3600   58.4050 C.3    19  GLN19       0.0908
     15  CD         9.7880  -18.7050   59.1070 C.2    19  GLN19       0.2608
     16  OE1        8.8610  -19.4530   58.8020 O.2    19  GLN19      -0.2717
     17  NE2       10.6770  -19.0130   60.0540 N.am   19  GLN19      -0.0878
     18  N         11.0140  -13.8850   57.4050 N.am   20  GLY20      -0.1940
     19  CA        12.2050  -13.0830   57.6230 C.3    20  GLY20       0.2014
     20  C         13.1910  -13.7390   58.5780 C.2    20  GLY20       0.2639
     21  O         13.2570  -14.9720   58.6780 O.2    20  GLY20      -0.2714
     22  N         13.9560  -12.9220   59.2910 N.am   21  GLN21      -0.1963
     23  CA        14.9510  -13.4460   60.2240 C.3    21  GLN21       0.1733
     24  C         14.2760  -13.8950   61.5100 C.2    21  GLN21       0.2616
     25  O         14.5650  -13.3680   62.5800 O.2    21  GLN21      -0.2715
     26  CB        15.9890  -12.3680   60.5520 C.3    21  GLN21       0.0408
     27  CG        16.5850  -11.6480   59.3450 C.3    21  GLN21       0.0908
     28  CD        17.0370  -12.6060   58.2590 C.2    21  GLN21       0.2608
     29  OE1       17.6530  -13.6400   58.5390 O.2    21  GLN21      -0.2717
     30  NE2       16.7440  -12.2630   57.0070 N.am   21  GLN21      -0.0878
     31  N         13.3820  -14.8730   61.4230 N.am   22  CYS22      -0.1954
     32  CA        12.6740  -15.3290   62.6210 C.3    22  CYS22       0.1843
     33  C         12.2620  -16.7990   62.5060 C.2    22  CYS22       0.2626
     34  O         11.8890  -17.2600   61.4300 O.2    22  CYS22      -0.2714
     35  CB        11.4470  -14.4140   62.8450 C.3    22  CYS22       0.0997
     36  SG        10.2700  -14.8330   64.1770 S.3    22  CYS22      -0.0797
     37  N         12.3550  -17.5420   63.6070 N.am   23  GLY23      -0.1954
     38  CA        11.9740  -18.9470   63.5730 C.3    23  GLY23       0.1869
     39  C         10.5040  -19.1140   63.9100 C.2    23  GLY23       0.2309
     40  O         10.1220  -19.9230   64.7500 O.2    23  GLY23      -0.2863
     41  N          7.9930  -20.3100   62.0630 N.3    25  CYS25      -0.1221
     42  CA         7.2900  -21.1430   61.0940 C.3    25  CYS25       0.1808
     43  C          6.0500  -21.7280   61.7630 C.2    25  CYS25       0.2601
     44  O          5.0740  -22.0670   61.1020 O.2    25  CYS25      -0.2717
     45  CB         8.1940  -22.2840   60.5880 C.3    25  CYS25       0.0970
     46  SG         8.9660  -23.3000   61.8880 S.3    25  CYS25      -0.0800
     47  N          6.1070  -21.8590   63.0870 N.am   26  TRP26      -0.1976
     48  CA         4.9860  -22.4170   63.8300 C.3    26  TRP26       0.1640
     49  C          3.7970  -21.4340   63.7890 C.2    26  TRP26       0.2290
     50  O          2.6490  -21.8320   63.6410 O.2    26  TRP26      -0.2864
     51  CB         5.4090  -22.7110   65.2710 C.3    26  TRP26       0.0576
     52  CG         5.7780  -21.5040   66.0530 C.ar   26  TRP26       0.0006
     53  CD1        7.0050  -20.9300   66.1370 C.ar   26  TRP26       0.0946
     54  CD2        4.9000  -20.7000   66.8590 C.ar   26  TRP26       0.0152
     55  NE1        6.9560  -19.8180   66.9470 N.ar   26  TRP26      -0.2442
     56  CE2        5.6760  -19.6510   67.4040 C.ar   26  TRP26       0.0810
     57  CE3        3.5330  -20.7630   67.1730 C.ar   26  TRP26       0.0012
     58  CZ2        5.1350  -18.6720   68.2450 C.ar   26  TRP26       0.0191
     59  CZ3        2.9920  -19.7860   68.0130 C.ar   26  TRP26       0.0001
     60  CH2        3.7920  -18.7580   68.5360 C.ar   26  TRP26       0.0015
     61  N          2.9220  -17.4220   75.0760 N.3    58  SER58      -0.1202
     62  CA         4.0090  -17.6660   75.9830 C.3    58  SER58       0.2020
     63  C          4.3110  -19.1490   76.1550 C.2    58  SER58       0.2619
     64  O          5.2720  -19.4850   76.8320 O.2    58  SER58      -0.2717
     65  CB         3.7040  -17.0430   77.3400 C.3    58  SER58       0.2103
     66  OG         2.8280  -17.8620   78.0940 O.3    58  SER58      -0.2182
     67  N          3.5130  -20.0420   75.5690 N.am   59  GLU59      -0.1965
     68  CA         3.8020  -21.4710   75.7190 C.3    59  GLU59       0.1733
     69  C          4.9010  -21.7750   74.6960 C.2    59  GLU59       0.2616
     70  O          5.5150  -22.8460   74.7210 O.2    59  GLU59      -0.2715
     71  CB         2.5710  -22.3620   75.4290 C.3    59  GLU59       0.0429
     72  CG         1.3560  -22.1560   76.3460 C.3    59  GLU59       0.1163
     73  CD         0.1850  -21.4480   75.6360 C.2    59  GLU59       0.3649
     74  OE1       -0.6280  -22.1350   74.9570 O.co2  59  GLU59      -0.2457
     75  OE2        0.0960  -20.2000   75.7530 O.co2  59  GLU59      -0.2457
     76  N          5.1300  -20.8270   73.7880 N.am   60  ASN60      -0.1958
     77  CA         6.1520  -20.9870   72.7610 C.3    60  ASN60       0.1819
     78  C          7.3550  -20.0780   73.0370 C.2    60  ASN60       0.2621
     79  O          7.4510  -19.4490   74.1010 O.2    60  ASN60      -0.2715
     80  CB         5.5600  -20.7110   71.3760 C.3    60  ASN60       0.1195
     81  CG         4.7220  -21.8800   70.8550 C.2    60  ASN60       0.2630
     82  OD1        3.9840  -21.7350   69.8740 O.2    60  ASN60      -0.2716
     83  ND2        4.8380  -23.0370   71.5000 N.am   60  ASN60      -0.0877
     84  N          8.2760  -19.9920   72.0860 N.am   61  ASP61      -0.1971
     85  CA         9.4510  -19.1900   72.3330 C.3    61  ASP61       0.1709
     86  C          9.6930  -18.0680   71.3260 C.2    61  ASP61       0.2293
     87  O         10.8300  -17.7960   70.9440 O.2    61  ASP61      -0.2864
     88  CB        10.6680  -20.1300   72.4440 C.3    61  ASP61       0.1436
     89  CG        11.9380  -19.4160   72.8850 C.2    61  ASP61       0.3671
     90  OD1       11.8800  -18.6310   73.8660 O.co2  61  ASP61      -0.2456
     91  OD2       12.9940  -19.6620   72.2410 O.co2  61  ASP61      -0.2456
     92  N         10.5000  -16.0690   68.3140 N.3    63  CYS63      -0.1221
     93  CA        11.2420  -16.4410   67.1090 C.3    63  CYS63       0.1808
     94  C         12.1170  -17.6370   67.3780 C.2    63  CYS63       0.2602
     95  O         12.6630  -18.2350   66.4630 O.2    63  CYS63      -0.2717
     96  CB        12.0640  -15.2700   66.6010 C.3    63  CYS63       0.0970
     97  SG        11.0210  -13.9720   65.8570 S.3    63  CYS63      -0.0800
     98  N         12.2120  -17.9930   68.6530 N.am   64  GLY64      -0.1942
     99  CA        12.9970  -19.1390   69.0470 C.3    64  GLY64       0.2014
    100  C         12.3050  -20.4000   68.6090 C.2    64  GLY64       0.2639
    101  O         12.8900  -21.4800   68.6660 O.2    64  GLY64      -0.2714
    102  N         11.0570  -20.2680   68.1630 N.am   65  GLY65      -0.1939
    103  CA        10.2920  -21.4280   67.7180 C.3    65  GLY65       0.2014
    104  C          9.1660  -21.8280   68.6600 C.2    65  GLY65       0.2639
    105  O          9.0680  -21.3280   69.8010 O.2    65  GLY65      -0.2714
    106  N          8.3100  -22.7320   68.1820 N.am   66  GLY66      -0.1939
    107  CA         7.1730  -23.1870   68.9660 C.3    66  GLY66       0.2014
    108  C          6.3670  -24.2610   68.2640 C.2    66  GLY66       0.2639
    109  O          6.7380  -24.7440   67.1870 O.2    66  GLY66      -0.2714
    110  N          5.2670  -24.6610   68.8960 N.am   67  TYR67      -0.1959
    111  CA         4.3670  -25.6650   68.3200 C.3    67  TYR67       0.1771
    112  C          2.9940  -25.0600   68.0380 C.2    67  TYR67       0.2619
    113  O          2.6130  -24.0710   68.6600 O.2    67  TYR67      -0.2715
    114  CB         4.2220  -26.8390   69.2670 C.3    67  TYR67       0.0574
    115  CG         5.4820  -27.6500   69.4240 C.ar   67  TYR67      -0.0198
    116  CD1        5.8240  -28.6500   68.4980 C.ar   67  TYR67      -0.0009
    117  CD2        6.2960  -27.4790   70.5460 C.ar   67  TYR67      -0.0009
    118  CE1        6.9390  -29.4690   68.7030 C.ar   67  TYR67       0.0417
    119  CE2        7.4120  -28.2880   70.7620 C.ar   67  TYR67       0.0417
    120  CZ         7.7250  -29.2810   69.8450 C.ar   67  TYR67       0.1957
    121  OH         8.7950  -30.1070   70.1040 O.3    67  TYR67      -0.2866
    122  N          2.2620  -25.6610   67.1010 N.am   68  MET68      -0.1977
    123  CA         0.9260  -25.1790   66.7100 C.3    68  MET68       0.1605
    124  C         -0.2020  -25.3290   67.7420 C.2    68  MET68       0.2287
    125  O         -1.0170  -24.4080   67.9200 O.2    68  MET68      -0.2864
    126  CB         0.4890  -25.8390   65.4050 C.3    68  MET68       0.0413
    127  CG         1.4240  -25.5350   64.2290 C.3    68  MET68       0.0598
    128  SD         3.0270  -26.3490   64.3370 S.3    68  MET68      -0.1393
    129  CE         2.6780  -27.8530   63.4670 C.3    68  MET68       0.0692
    130  N         -0.1810  -25.3590   71.1120 N.3    70  ASN70      -0.1240
    131  CA        -0.0350  -24.2630   72.0730 C.3    70  ASN70       0.1653
    132  C         -0.4800  -22.9360   71.4480 C.2    70  ASN70       0.2266
    133  O         -0.7900  -21.9850   72.1550 O.2    70  ASN70      -0.2867
    134  CB         1.4290  -24.1470   72.5440 C.3    70  ASN70       0.1155
    135  CG         1.8220  -25.2340   73.5490 C.2    70  ASN70       0.2627
    136  OD1        3.0060  -25.5870   73.6480 O.2    70  ASN70      -0.2716
    137  ND2        0.8370  -25.7570   74.3120 N.am   70  ASN70      -0.0877
    138  N          4.1020  -30.7820   60.9370 N.3   134  ALA134     -0.1245
    139  CA         5.4980  -30.5450   61.3090 C.3   134  ALA134      0.1562
    140  C          6.3520  -31.5150   60.5090 C.2   134  ALA134      0.2260
    141  O          5.9200  -32.6330   60.2130 O.2   134  ALA134     -0.2867
    142  CB         5.7050  -30.7830   62.8030 C.3   134  ALA134      0.0290
    143  N         15.8660  -27.3290   51.3330 N.3   143  GLN143     -0.1245
    144  CA        16.1580  -25.9070   51.1700 C.3   143  GLN143      0.1566
    145  C         16.3610  -25.4650   49.7210 C.2   143  GLN143      0.2260
    146  O         16.1480  -24.3030   49.3820 O.2   143  GLN143     -0.2867
    147  CB        17.4010  -25.5400   51.9760 C.3   143  GLN143      0.0367
    148  CG        17.5580  -26.3420   53.2620 C.3   143  GLN143      0.0905
    149  CD        18.7390  -25.8790   54.1130 C.2   143  GLN143      0.2608
    150  OE1       19.7500  -25.4050   53.5850 O.2   143  GLN143     -0.2717
    151  NE2       18.6180  -26.0290   55.4340 N.am  143  GLN143     -0.0878
    152  N         11.8050  -33.4680   63.7520 N.3   160  LEU160     -0.1231
    153  CA        10.8950  -32.4480   63.2520 C.3   160  LEU160      0.1693
    154  C         11.4940  -31.1190   63.6470 C.2   160  LEU160      0.2592
    155  O         12.0340  -30.9800   64.7320 O.2   160  LEU160     -0.2718
    156  CB         9.5060  -32.6390   63.8740 C.3   160  LEU160      0.0284
    157  CG         8.9850  -34.0620   63.6510 C.3   160  LEU160      0.0019
    158  CD1        7.7960  -34.3040   64.5430 C.3   160  LEU160      0.0001
    159  CD2        8.6440  -34.2600   62.1840 C.3   160  LEU160      0.0001
    160  N         11.3880  -30.1290   62.7770 N.am  161  ASN161     -0.1960
    161  CA        11.9960  -28.8500   63.0780 C.3   161  ASN161      0.1819
    162  C         11.3410  -27.7200   62.3070 C.2   161  ASN161      0.2621
    163  O         11.6550  -26.5400   62.5190 O.2   161  ASN161     -0.2715
    164  CB        13.4880  -28.9420   62.7360 C.3   161  ASN161      0.1195
    165  CG        13.7330  -29.5130   61.3550 C.2   161  ASN161      0.2630
    166  OD1       13.6120  -28.8150   60.3490 O.2   161  ASN161     -0.2716
    167  ND2       14.0630  -30.7940   61.2990 N.am  161  ASN161     -0.0877
    168  N         10.4400  -28.0830   61.4000 N.am  162  HIS162     -0.1959
    169  CA         9.7530  -27.0860   60.5980 C.3   162  HIS162      0.1787
    170  C          8.2500  -27.3100   60.6200 C.2   162  HIS162      0.2620
    171  O          7.7620  -28.4520   60.5710 O.2   162  HIS162     -0.2715
    172  CB        10.2740  -27.1220   59.1680 C.3   162  HIS162      0.0785
    173  CG         9.7780  -26.0010   58.3090 C.ar  162  HIS162      0.0821
    174  ND1        9.7590  -24.6890   58.7280 N.ar  162  HIS162     -0.2267
    175  CD2        9.3340  -25.9900   57.0310 C.ar  162  HIS162      0.1154
    176  CE1        9.3280  -23.9190   57.7480 C.ar  162  HIS162      0.1986
    177  NE2        9.0630  -24.6850   56.7050 N.ar  162  HIS162     -0.2212
    178  N          7.5320  -26.1950   60.7220 N.am  163  ALA163     -0.1977
    179  CA         6.0760  -26.1810   60.7600 C.3   163  ALA163      0.1597
    180  C          5.5860  -25.6260   59.4490 C.2   163  ALA163      0.2287
    181  O          5.7750  -24.4590   59.1390 O.2   163  ALA163     -0.2864
    182  CB         5.5880  -25.3060   61.9070 C.3   163  ALA163      0.0319
    183  N          8.6670  -19.2880   53.6240 N.3   184  TRP184     -0.1241
    184  CA         9.9880  -18.7160   53.3780 C.3   184  TRP184      0.1605
    185  C          9.9740  -17.7840   52.1710 C.2   184  TRP184      0.2264
    186  O         11.0130  -17.5500   51.5560 O.2   184  TRP184     -0.2867
    187  CB        11.0240  -19.8250   53.1440 C.3   184  TRP184      0.0550
    188  CG        11.3080  -20.6550   54.3580 C.ar  184  TRP184      0.0003
    189  CD1       11.1060  -20.2900   55.6550 C.ar  184  TRP184      0.0946
    190  CD2       11.8900  -21.9670   54.3960 C.ar  184  TRP184      0.0152
    191  NE1       11.5220  -21.2890   56.4970 N.ar  184  TRP184     -0.2442
    192  CE2       12.0130  -22.3310   55.7510 C.ar  184  TRP184      0.0810
    193  CE3       12.3250  -22.8690   53.4130 C.ar  184  TRP184      0.0012
    194  CZ2       12.5510  -23.5570   56.1620 C.ar  184  TRP184      0.0191
    195  CZ3       12.8650  -24.0990   53.8210 C.ar  184  TRP184      0.0001
    196  CH2       12.9710  -24.4260   55.1860 C.ar  184  TRP184      0.0015
    197  N         10.9510  -19.0850   47.0840 N.3   188  TRP188     -0.1241
    198  CA        11.4900  -20.3560   47.5370 C.3   188  TRP188      0.1605
    199  C         10.6920  -21.4620   46.8580 C.2   188  TRP188      0.2264
    200  O          9.6230  -21.2130   46.3140 O.2   188  TRP188     -0.2867
    201  CB        11.3560  -20.4980   49.0490 C.3   188  TRP188      0.0550
    202  CG        11.8060  -21.8300   49.5400 C.ar  188  TRP188      0.0003
    203  CD1       13.0670  -22.1840   49.8970 C.ar  188  TRP188      0.0946
    204  CD2       10.9990  -23.0140   49.6760 C.ar  188  TRP188      0.0152
    205  NE1       13.1080  -23.5140   50.2500 N.ar  188  TRP188     -0.2442
    206  CE2       11.8540  -24.0480   50.1200 C.ar  188  TRP188      0.0810
    207  CE3        9.6430  -23.2960   49.4620 C.ar  188  TRP188      0.0012
    208  CZ2       11.3980  -25.3470   50.3570 C.ar  188  TRP188      0.0191
    209  CZ3        9.1880  -24.5880   49.6970 C.ar  188  TRP188      0.0001
    210  CH2       10.0650  -25.5980   50.1390 C.ar  188  TRP188      0.0015
    211  N          2.9270  -35.0860   63.4940 N.3   209  LEU209     -0.1245
    212  CA         2.4820  -34.0460   64.4080 C.3   209  LEU209      0.1561
    213  C          1.5110  -33.1630   63.6650 C.2   209  LEU209      0.2260
    214  O          1.6480  -31.9430   63.7040 O.2   209  LEU209     -0.2867
    215  CB         3.6520  -33.1830   64.8490 C.3   209  LEU209      0.0270
    216  CG         3.6440  -32.7450   66.2970 C.3   209  LEU209      0.0019
    217  CD1        3.8900  -34.0080   67.0960 C.3   209  LEU209      0.0001
    218  CD2        4.7150  -31.7060   66.5830 C.3   209  LEU209      0.0001
@<TRIPOS>BOND
     1   200   199    2
     2   199   198    1
     3   197   198    1
     4   198   201    1
     5   201   202    1
     6   146   145    2
     7   207   204   ar
     8   207   209   ar
     9   202   204   ar
    10   202   203   ar
    11   204   206   ar
    12   209   210   ar
    13   145   144    1
    14   203   205   ar
    15   206   205   ar
    16   206   208   ar
    17   210   208   ar
    18   144   143    1
    19   144   147    1
    20   186   185    2
    21   147   148    1
    22   185   184    1
    23   187   184    1
    24   187   188    1
    25   148   149    1
    26   184   183    1
    27   193   195   ar
    28   193   190   ar
    29     5     6    1
    30     5     2    1
    31   150   149    2
    32     8     6   am
    33     6     7    2
    34   195   196   ar
    35   149   151   am
    36     1     2    1
    37   188   190   ar
    38   188   189   ar
    39   190   192   ar
    40     2     3    1
    41   196   194   ar
    42   189   191   ar
    43   192   194   ar
    44   192   191   ar
    45     3     4    2
    46     3     9   am
    47     9    10    1
    48   177   175   ar
    49   177   176   ar
    50    30    28   am
    51   175   173   ar
    52    18    19    1
    53    18    11   am
    54    19    20    1
    55   176   174   ar
    56    10    11    1
    57    10    13    1
    58    28    29    2
    59    28    27    1
    60   173   174   ar
    61   173   172    1
    62    14    13    1
    63    14    15    1
    64    11    12    2
    65    20    21    2
    66    20    22   am
    67    16    15    2
    68    15    17   am
    69   181   180    2
    70   172   169    1
    71    22    23    1
    72    27    26    1
    73   180   179    1
    74   141   140    2
    75    23    26    1
    76    23    24    1
    77   166   165    2
    78   140   139    1
    79   171   170    2
    80    45    42    1
    81    45    46    1
    82   169   170    1
    83   169   168    1
    84   170   178   am
    85   178   179    1
    86   179   182    1
    87   138   139    1
    88    42    43    1
    89    42    41    1
    90    44    43    2
    91   167   165   am
    92   139   142    1
    93   165   164    1
    94   168   162   am
    95    31    24   am
    96    31    32    1
    97    34    33    2
    98    24    25    2
    99    43    47   am
   100   159   157    1
   101   162   163    2
   102   162   161    1
   103    33    32    1
   104    33    37   am
   105    32    35    1
   106   164   161    1
   107   160   161    1
   108   160   154   am
   109    35    36    1
   110    47    48    1
   111   153   154    1
   112   153   152    1
   113   153   156    1
   114   129   128    1
   115   211   212    1
   116    38    37    1
   117    38    39    1
   118    50    49    2
   119   154   155    2
   120   157   156    1
   121   157   158    1
   122   213   214    2
   123   213   212    1
   124    49    48    1
   125    48    51    1
   126    39    40    2
   127    36    97    1
   128   127   128    1
   129   127   126    1
   130   212   215    1
   131   215   216    1
   132    51    52    1
   133   126   123    1
   134    97    96    1
   135    52    53   ar
   136    52    54   ar
   137    53    55   ar
   138   216   218    1
   139   216   217    1
   140    95    94    2
   141    96    93    1
   142   123   122    1
   143   123   124    1
   144    54    57   ar
   145    54    56   ar
   146    55    56   ar
   147   122   112   am
   148    93    94    1
   149    93    92    1
   150    57    59   ar
   151   109   108    2
   152    94    98   am
   153    56    58   ar
   154   103   102    1
   155   103   104    1
   156   124   125    2
   157    59    60   ar
   158   112   111    1
   159   112   113    2
   160   102   100   am
   161   106   104   am
   162   106   107    1
   163    58    60   ar
   164   108   110   am
   165   108   107    1
   166   111   110    1
   167   111   114    1
   168   116   118   ar
   169   116   115   ar
   170   100   101    2
   171   100    99    1
   172    98    99    1
   173   104   105    2
   174   118   120   ar
   175   114   115    1
   176   115   117   ar
   177   120   121    1
   178   120   119   ar
   179    82    81    2
   180   117   119   ar
   181    81    80    1
   182    81    83   am
   183    87    86    2
   184   130   131    1
   185    86    85    1
   186    80    77    1
   187   132   131    1
   188   132   133    2
   189   131   134    1
   190    84    85    1
   191    84    78   am
   192    91    89   ar
   193    85    88    1
   194    88    89    1
   195   134   135    1
   196    77    78    1
   197    77    76    1
   198    89    90   ar
   199    78    79    2
   200   135   136    2
   201   135   137   am
   202    76    69   am
   203    69    70    2
   204    69    68    1
   205    74    73   ar
   206    61    62    1
   207    71    68    1
   208    71    72    1
   209    67    68    1
   210    67    63   am
   211    73    75   ar
   212    73    72    1
   213    62    63    1
   214    62    65    1
   215    63    64    2
   216    65    66    1
