@<TRIPOS>MOLECULE
tmp/1nl9A00.pdb
 164 158 0 0 0
SMALL
GASTEIGER

@<TRIPOS>ATOM
      1  N         33.6220   37.6240   19.7650 N.3    45  TYR45      -0.1227
      2  CA        32.6450   36.9290   18.9360 C.3    45  TYR45       0.1736
      3  C         31.2650   37.5680   19.0560 C.2    45  TYR45       0.2595
      4  O         30.7760   37.8320   20.1560 O.2    45  TYR45      -0.2718
      5  CB        32.5750   35.4570   19.3370 C.3    45  TYR45       0.0548
      6  CG        33.9200   34.7730   19.3350 C.ar   45  TYR45      -0.0200
      7  CD1       34.6100   34.5450   18.1420 C.ar   45  TYR45      -0.0009
      8  CD2       34.5130   34.3620   20.5280 C.ar   45  TYR45      -0.0009
      9  CE1       35.8570   33.9250   18.1390 C.ar   45  TYR45       0.0417
     10  CE2       35.7570   33.7410   20.5370 C.ar   45  TYR45       0.0417
     11  CZ        36.4260   33.5260   19.3390 C.ar   45  TYR45       0.1957
     12  OH        37.6600   32.9150   19.3480 O.3    45  TYR45      -0.2866
     13  N         30.6370   37.8060   17.9090 N.am   46  ARG46      -0.1966
     14  CA        29.3220   38.4300   17.8690 C.3    46  ARG46       0.1729
     15  C         28.2570   37.5340   18.5000 C.2    46  ARG46       0.2616
     16  O         27.2210   38.0200   18.9530 O.2    46  ARG46      -0.2715
     17  CB        28.9520   38.7630   16.4180 C.3    46  ARG46       0.0348
     18  CG        27.8620   39.8120   16.2720 C.3    46  ARG46       0.0492
     19  CD        27.6120   40.1380   14.8030 C.3    46  ARG46       0.2205
     20  NE        26.6430   41.2180   14.6190 N.pl3  46  ARG46      -0.0865
     21  CZ        26.3210   41.7390   13.4380 C.cat  46  ARG46       0.5346
     22  NH1       26.8890   41.2800   12.3290 N.pl3  46  ARG46       0.1354
     23  NH2       25.4310   42.7210   13.3630 N.pl3  46  ARG46       0.1354
     24  N         28.5160   36.2300   18.5430 N.am   47  ASP47      -0.1957
     25  CA        27.5590   35.2950   19.1270 C.3    47  ASP47       0.1840
     26  C         27.8710   34.8760   20.5810 C.2    47  ASP47       0.2621
     27  O         27.2600   33.9530   21.1180 O.2    47  ASP47      -0.2715
     28  CB        27.4100   34.0580   18.2170 C.3    47  ASP47       0.1450
     29  CG        28.7250   33.3230   17.9800 C.2    47  ASP47       0.3671
     30  OD1       29.8050   33.9310   18.1510 O.co2  47  ASP47      -0.2456
     31  OD2       28.6760   32.1290   17.6030 O.co2  47  ASP47      -0.2456
     32  N         28.8120   35.5610   21.2190 N.am   48  VAL48      -0.1977
     33  CA        29.1600   35.2550   22.6100 C.3    48  VAL48       0.1596
     34  C         29.1480   36.5390   23.4240 C.2    48  VAL48       0.2287
     35  O         30.1110   37.3070   23.3970 O.2    48  VAL48      -0.2864
     36  CB        30.5550   34.6230   22.7360 C.3    48  VAL48       0.0276
     37  CG1       30.8850   34.3950   24.2180 C.3    48  VAL48       0.0022
     38  CG2       30.6010   33.3010   21.9790 C.3    48  VAL48       0.0022
     39  N         46.1950   29.0970   18.4690 N.3   114  GLU114     -0.1231
     40  CA        45.7320   27.7230   18.3150 C.3   114  GLU114      0.1699
     41  C         45.0650   27.6430   16.9490 C.2   114  GLU114      0.2592
     42  O         44.3060   28.5370   16.5760 O.2   114  GLU114     -0.2718
     43  CB        44.7000   27.3550   19.3910 C.3   114  GLU114      0.0402
     44  CG        45.1120   27.6400   20.8320 C.3   114  GLU114      0.1161
     45  CD        44.1370   27.0520   21.8390 C.2   114  GLU114      0.3649
     46  OE1       42.9410   26.9560   21.5140 O.co2 114  GLU114     -0.2457
     47  OE2       44.5580   26.6950   22.9570 O.co2 114  GLU114     -0.2457
     48  N         45.3440   26.5810   16.2050 N.am  115  LYS115     -0.1980
     49  CA        44.7470   26.4130   14.8830 C.3   115  LYS115      0.1596
     50  C         45.2310   27.5030   13.9360 C.2   115  LYS115      0.2287
     51  O         44.5000   27.9110   13.0370 O.2   115  LYS115     -0.2864
     52  CB        43.2220   26.4960   14.9660 C.3   115  LYS115      0.0298
     53  CG        42.5700   25.5500   15.9510 C.3   115  LYS115      0.0038
     54  CD        42.0850   24.2860   15.2800 C.3   115  LYS115      0.0206
     55  CE        41.1220   23.5440   16.1940 C.3   115  LYS115      0.1093
     56  NZ        39.9340   24.3800   16.5340 N.3   115  LYS115     -0.1314
     57  N         43.6990   33.2570   19.5180 N.3   119  LYS119     -0.1245
     58  CA        42.4860   32.9610   20.2730 C.3   119  LYS119      0.1561
     59  C         42.4170   33.8450   21.5180 C.2   119  LYS119      0.2260
     60  O         41.4180   33.8340   22.2470 O.2   119  LYS119     -0.2867
     61  CB        42.4850   31.4920   20.7030 C.3   119  LYS119      0.0271
     62  CG        42.5510   30.5020   19.5620 C.3   119  LYS119      0.0035
     63  CD        41.2640   30.5090   18.7590 C.3   119  LYS119      0.0206
     64  CE        41.4200   29.7050   17.4870 C.3   119  LYS119      0.1093
     65  NZ        40.2290   29.8260   16.6160 N.3   119  LYS119     -0.1314
     66  N         45.9820   21.9960   26.7480 N.3   178  TRP178     -0.1241
     67  CA        44.6810   21.5630   26.2670 C.3   178  TRP178      0.1605
     68  C         44.8980   21.1890   24.7960 C.2   178  TRP178      0.2264
     69  O         45.4770   21.9610   24.0350 O.2   178  TRP178     -0.2867
     70  CB        43.6600   22.6940   26.3890 C.3   178  TRP178      0.0550
     71  CG        42.2670   22.2520   26.1180 C.ar  178  TRP178      0.0003
     72  CD1       41.6930   22.0520   24.8970 C.ar  178  TRP178      0.0946
     73  CD2       41.2710   21.9130   27.0920 C.ar  178  TRP178      0.0152
     74  NE1       40.4020   21.6100   25.0490 N.ar  178  TRP178     -0.2442
     75  CE2       40.1170   21.5160   26.3860 C.ar  178  TRP178      0.0810
     76  CE3       41.2440   21.9070   28.4940 C.ar  178  TRP178      0.0012
     77  CZ2       38.9440   21.1170   27.0340 C.ar  178  TRP178      0.0191
     78  CZ3       40.0800   21.5110   29.1370 C.ar  178  TRP178      0.0001
     79  CH2       38.9450   21.1210   28.4060 C.ar  178  TRP178      0.0015
     80  N         39.0150   18.2550   20.4910 N.3   182  GLY182     -0.1225
     81  CA        38.3770   17.4760   21.5330 C.3   182  GLY182      0.1811
     82  C         38.7850   17.9020   22.9290 C.2   182  GLY182      0.2280
     83  O         39.0310   19.0810   23.1820 O.2   182  GLY182     -0.2866
     84  N         39.2260   31.3540   28.2960 N.3   214  CYS214     -0.1221
     85  CA        39.8280   30.5590   27.2380 C.3   214  CYS214      0.1808
     86  C         39.7270   31.5350   26.0630 C.2   214  CYS214      0.2602
     87  O         40.3580   32.5900   26.1000 O.2   214  CYS214     -0.2717
     88  CB        39.0470   29.2560   26.9920 C.3   214  CYS214      0.0970
     89  SG        37.2520   29.3450   27.1710 S.3   214  CYS214     -0.0800
     90  N         38.9280   31.2310   25.0450 N.am  215  SER215     -0.1938
     91  CA        38.8050   32.1620   23.9290 C.3   215  SER215      0.2055
     92  C         37.4800   32.9180   23.9910 C.2   215  SER215      0.2643
     93  O         37.4560   34.1480   23.9510 O.2   215  SER215     -0.2714
     94  CB        38.9260   31.4290   22.5900 C.3   215  SER215      0.2130
     95  OG        39.0890   32.3710   21.5450 O.3   215  SER215     -0.2179
     96  N         36.3770   32.1830   24.0770 N.am  216  ALA216     -0.1963
     97  CA        35.0590   32.8000   24.1760 C.3   216  ALA216      0.1728
     98  C         34.6700   32.9160   25.6550 C.2   216  ALA216      0.2617
     99  O         33.7980   33.7030   26.0260 O.2   216  ALA216     -0.2715
    100  CB        34.0330   31.9650   23.4280 C.3   216  ALA216      0.0334
    101  N         35.3230   32.1130   26.4900 N.am  217  GLY217     -0.1940
    102  CA        35.0480   32.1350   27.9120 C.3   217  GLY217      0.2014
    103  C         33.7620   31.4310   28.3030 C.2   217  GLY217      0.2639
    104  O         33.0450   31.8960   29.1940 O.2   217  GLY217     -0.2714
    105  N         33.4670   30.3110   27.6470 N.am  218  ILE218     -0.1963
    106  CA        32.2580   29.5580   27.9520 C.3   218  ILE218      0.1727
    107  C         32.4640   28.0450   27.8940 C.2   218  ILE218      0.2617
    108  O         31.8580   27.2980   28.6680 O.2   218  ILE218     -0.2715
    109  CB        31.1030   29.9370   26.9960 C.3   218  ILE218      0.0290
    110  CG1       31.4580   29.5590   25.5530 C.3   218  ILE218      0.0022
    111  CG2       30.8180   31.4330   27.0950 C.3   218  ILE218      0.0023
    112  CD1       30.3360   29.8100   24.5400 C.3   218  ILE218      0.0001
    113  N         33.3250   27.6020   26.9820 N.am  219  GLY219     -0.1940
    114  CA        33.5770   26.1800   26.8260 C.3   219  GLY219      0.2014
    115  C         34.5100   25.5860   27.8610 C.2   219  GLY219      0.2638
    116  O         34.0590   25.0040   28.8510 O.2   219  GLY219     -0.2714
    117  N         35.8120   25.7230   27.6260 N.am  220  ARG220     -0.1977
    118  CA        36.8060   25.1960   28.5440 C.3   220  ARG220      0.1597
    119  C         36.6060   25.8410   29.9130 C.2   220  ARG220      0.2287
    120  O         36.7100   25.1750   30.9350 O.2   220  ARG220     -0.2864
    121  CB        38.2220   25.4850   28.0340 C.3   220  ARG220      0.0334
    122  CG        38.4990   24.9820   26.6250 C.3   220  ARG220      0.0492
    123  CD        39.9460   25.2320   26.2020 C.3   220  ARG220      0.2205
    124  NE        40.1060   25.0460   24.7620 N.pl3 220  ARG220     -0.0865
    125  CZ        41.2110   25.3250   24.0760 C.cat 220  ARG220      0.5346
    126  NH1       42.2890   25.8070   24.6850 N.pl3 220  ARG220      0.1354
    127  NH2       41.2270   25.1440   22.7660 N.pl3 220  ARG220      0.1354
    128  N         25.7690   32.5560   29.0170 N.3   257  MET257     -0.1230
    129  CA        25.3070   31.6440   27.9600 C.3   257  MET257      0.1702
    130  C         26.3820   30.6310   27.5150 C.2   257  MET257      0.2592
    131  O         27.5740   30.8240   27.7130 O.2   257  MET257     -0.2718
    132  CB        24.8610   32.4880   26.7650 C.3   257  MET257      0.0401
    133  CG        25.9830   33.3750   26.2220 C.3   257  MET257      0.0596
    134  SD        25.6550   33.9410   24.5480 S.3   257  MET257     -0.1393
    135  CE        24.4660   35.2300   24.9520 C.3   257  MET257      0.0692
    136  N         25.8970   29.5450   26.9200 N.am  258  GLY258     -0.1957
    137  CA        26.7500   28.4950   26.3790 C.3   258  GLY258      0.1869
    138  C         27.8460   27.8100   27.1750 C.2   258  GLY258      0.2309
    139  O         28.7260   27.1970   26.5650 O.2   258  GLY258     -0.2863
    140  N         30.4000   23.8080   25.7040 N.3   261  GLN261     -0.1231
    141  CA        29.9760   23.8440   24.3040 C.3   261  GLN261      0.1698
    142  C         29.8060   22.5420   23.5240 C.2   261  GLN261      0.2592
    143  O         29.2150   22.5450   22.4460 O.2   261  GLN261     -0.2718
    144  CB        30.9110   24.7760   23.5270 C.3   261  GLN261      0.0381
    145  CG        30.5620   26.2400   23.6800 C.3   261  GLN261      0.0905
    146  CD        29.2690   26.5880   22.9680 C.2   261  GLN261      0.2608
    147  OE1       29.2150   26.6130   21.7380 O.2   261  GLN261     -0.2717
    148  NE2       28.2170   26.8410   23.7360 N.am  261  GLN261     -0.0878
    149  N         30.3110   21.4340   24.0500 N.am  262  THR262     -0.1953
    150  CA        30.1790   20.1610   23.3560 C.3   262  THR262      0.1897
    151  C         29.8350   19.0210   24.2910 C.2   262  THR262      0.2313
    152  O         29.9950   19.1260   25.5080 O.2   262  THR262     -0.2863
    153  CB        31.4770   19.7680   22.6420 C.3   262  THR262      0.1794
    154  OG1       32.5350   19.6810   23.6050 O.3   262  THR262     -0.2208
    155  CG2       31.8330   20.7880   21.5650 C.3   262  THR262      0.0378
    156  N         32.9650   18.1420   26.2020 N.3   265  GLN265     -0.1245
    157  CA        33.3050   18.9260   27.3770 C.3   265  GLN265      0.1566
    158  C         32.3750   18.5360   28.5200 C.2   265  GLN265      0.2260
    159  O         32.7750   18.5490   29.6800 O.2   265  GLN265     -0.2867
    160  CB        33.1770   20.4250   27.0930 C.3   265  GLN265      0.0367
    161  CG        34.1270   20.9570   26.0320 C.3   265  GLN265      0.0905
    162  CD        34.0260   22.4630   25.8860 C.2   265  GLN265      0.2608
    163  OE1       32.9570   23.0430   26.0740 O.2   265  GLN265     -0.2717
    164  NE2       35.1350   23.1030   25.5370 N.am  265  GLN265     -0.0878
@<TRIPOS>BOND
     1    22    21    1
     2    51    50    2
     3    23    21    1
     4    21    20    2
     5    50    49    1
     6    20    19    1
     7    19    18    1
     8    49    52    1
     9    49    48    1
    10    52    53    1
    11    54    53    1
    12    54    55    1
    13    55    56    1
    14    48    41   am
    15    18    17    1
    16    17    14    1
    17    42    41    2
    18    65    64    1
    19    41    40    1
    20    64    63    1
    21    31    29   ar
    22    14    13    1
    23    14    15    1
    24    13     3   am
    25    29    30   ar
    26    29    28    1
    27     9     7   ar
    28     9    11   ar
    29     7     6   ar
    30    28    25    1
    31    40    39    1
    32    40    43    1
    33    15    24   am
    34    15    16    2
    35    24    25    1
    36    63    62    1
    37     2     3    1
    38     2     5    1
    39     2     1    1
    40     3     4    2
    41    25    26    1
    42     6     5    1
    43     6     8   ar
    44    11    12    1
    45    11    10   ar
    46    43    44    1
    47    57    58    1
    48    62    61    1
    49    58    61    1
    50    58    59    1
    51    80    81    1
    52     8    10   ar
    53    26    27    2
    54    26    32   am
    55    44    45    1
    56    32    33    1
    57    46    45   ar
    58    59    60    2
    59    81    82    1
    60    95    94    1
    61   155   153    1
    62   147   146    2
    63    45    47   ar
    64    38    36    1
    65   143   142    2
    66    94    91    1
    67    33    36    1
    68    33    34    1
    69   153   150    1
    70   153   154    1
    71    36    37    1
    72   127   125    1
    73    82    83    2
    74   146   145    1
    75   146   148   am
    76   150   149    1
    77   150   151    1
    78    35    34    2
    79   100    97    1
    80   142   149   am
    81   142   141    1
    82   144   145    1
    83   144   141    1
    84    91    92    1
    85    91    90    1
    86    93    92    2
    87    92    96   am
    88    69    68    2
    89   125   126    1
    90   125   124    2
    91    96    97    1
    92    97    98    1
    93   151   152    2
    94   141   140    1
    95   112   110    1
    96   134   135    1
    97   134   133    1
    98   124   123    1
    99    68    67    1
   100    72    74   ar
   101    72    71   ar
   102    90    86   am
   103    74    75   ar
   104   164   162   am
   105   110   109    1
   106    98    99    2
   107    98   101   am
   108   162   161    1
   109   162   163    2
   110   161   160    1
   111    86    87    2
   112    86    85    1
   113    71    70    1
   114    71    73   ar
   115   156   157    1
   116   123   122    1
   117   133   132    1
   118    67    70    1
   119    67    66    1
   120   137   136    1
   121   137   138    1
   122    75    77   ar
   123    75    73   ar
   124   101   102    1
   125   139   138    2
   126   122   121    1
   127   132   129    1
   128   114   113    1
   129   114   115    1
   130   136   130   am
   131   113   107   am
   132    88    89    1
   133    88    85    1
   134   109   111    1
   135   109   106    1
   136    77    79   ar
   137    73    76   ar
   138   160   157    1
   139    85    84    1
   140   157   158    1
   141   130   131    2
   142   130   129    1
   143   117   115   am
   144   117   118    1
   145   105   106    1
   146   105   103   am
   147   115   116    2
   148   107   106    1
   149   107   108    2
   150   102   103    1
   151   129   128    1
   152   121   118    1
   153   103   104    2
   154    79    78   ar
   155    76    78   ar
   156   158   159    2
   157   118   119    1
   158   119   120    2
