@<TRIPOS>MOLECULE
tmp/1nljB00.pdb
 182 176 0 0 0
SMALL
GASTEIGER

@<TRIPOS>ATOM
      1  N         25.3470  -16.3780   25.1710 N.3    19  GLN19      -0.1245
      2  CA        24.3640  -15.8810   26.1390 C.3    19  GLN19       0.1566
      3  C         24.6910  -16.1670   27.5940 C.2    19  GLN19       0.2260
      4  O         24.5090  -15.3100   28.4540 O.2    19  GLN19      -0.2867
      5  CB        22.9850  -16.4750   25.8690 C.3    19  GLN19       0.0367
      6  CG        22.5540  -16.5230   24.4260 C.3    19  GLN19       0.0905
      7  CD        21.1560  -17.0930   24.2980 C.2    19  GLN19       0.2608
      8  OE1       20.7160  -17.4700   23.2150 O.2    19  GLN19      -0.2717
      9  NE2       20.4480  -17.1460   25.4090 N.am   19  GLN19      -0.0878
     10  N         18.3930  -15.8790   29.4210 N.3    23  GLY23      -0.1225
     11  CA        17.5980  -15.9900   28.2110 C.3    23  GLY23       0.1811
     12  C         17.6350  -14.6590   27.4850 C.2    23  GLY23       0.2280
     13  O         16.6320  -13.9540   27.3770 O.2    23  GLY23      -0.2866
     14  N         18.7700  -14.3080   24.2220 N.3    25  CYS25      -0.1221
     15  CA        18.8870  -14.4930   22.7840 C.3    25  CYS25       0.1808
     16  C         18.2310  -13.3460   22.0200 C.2    25  CYS25       0.2601
     17  O         18.7780  -12.8460   21.0370 O.2    25  CYS25      -0.2717
     18  CB        18.2450  -15.8090   22.3560 C.3    25  CYS25       0.0970
     19  SG        16.5490  -16.0740   22.9080 S.3    25  CYS25      -0.0800
     20  N         17.0550  -12.9370   22.4790 N.am   26  TRP26      -0.1976
     21  CA        16.3380  -11.8590   21.8330 C.3    26  TRP26       0.1640
     22  C         17.2280  -10.6250   21.7570 C.2    26  TRP26       0.2290
     23  O         17.2670   -9.9430   20.7340 O.2    26  TRP26      -0.2864
     24  CB        15.0500  -11.5460   22.6010 C.3    26  TRP26       0.0576
     25  CG        15.2570  -11.1350   24.0390 C.ar   26  TRP26       0.0006
     26  CD1       15.3010  -11.9580   25.1370 C.ar   26  TRP26       0.0946
     27  CD2       15.3960   -9.7950   24.5390 C.ar   26  TRP26       0.0152
     28  NE1       15.4470  -11.2120   26.2840 N.ar   26  TRP26      -0.2442
     29  CE2       15.5090   -9.8840   25.9500 C.ar   26  TRP26       0.0810
     30  CE3       15.4330   -8.5290   23.9320 C.ar   26  TRP26       0.0012
     31  CZ2       15.6550   -8.7560   26.7630 C.ar   26  TRP26       0.0191
     32  CZ3       15.5780   -7.4080   24.7360 C.ar   26  TRP26       0.0001
     33  CH2       15.6860   -7.5280   26.1420 C.ar   26  TRP26       0.0015
     34  N          9.4220   -3.6550   28.5750 N.3    59  GLU59      -0.1231
     35  CA         8.3270   -4.4010   27.9670 C.3    59  GLU59       0.1699
     36  C          8.7410   -5.8680   27.8160 C.2    59  GLU59       0.2592
     37  O          7.9320   -6.7100   27.4560 O.2    59  GLU59      -0.2718
     38  CB         7.9700   -3.8130   26.5960 C.3    59  GLU59       0.0402
     39  CG         7.6920   -2.3070   26.5820 C.3    59  GLU59       0.1161
     40  CD         8.9170   -1.4490   26.9400 C.2    59  GLU59       0.3649
     41  OE1       10.0620   -1.8180   26.5740 O.co2  59  GLU59      -0.2457
     42  OE2        8.7290   -0.3830   27.5790 O.co2  59  GLU59      -0.2457
     43  N         10.0150   -6.1640   28.0570 N.am   60  ASN60      -0.1960
     44  CA        10.5050   -7.5420   27.9890 C.3    60  ASN60       0.1819
     45  C         10.7640   -8.0220   29.4120 C.2    60  ASN60       0.2621
     46  O         10.4590   -7.3120   30.3640 O.2    60  ASN60      -0.2715
     47  CB        11.7810   -7.6510   27.1500 C.3    60  ASN60       0.1195
     48  CG        11.5050   -7.6220   25.6540 C.2    60  ASN60       0.2630
     49  OD1       12.4190   -7.4830   24.8590 O.2    60  ASN60      -0.2716
     50  ND2       10.2430   -7.7630   25.2700 N.am   60  ASN60      -0.0877
     51  N         11.3400   -9.2130   29.5630 N.am   61  ASP61      -0.1971
     52  CA        11.5600   -9.7570   30.8960 C.3    61  ASP61       0.1709
     53  C         12.9940  -10.1570   31.1990 C.2    61  ASP61       0.2293
     54  O         13.2440  -11.2260   31.7680 O.2    61  ASP61      -0.2864
     55  CB        10.6070  -10.9520   31.1030 C.3    61  ASP61       0.1436
     56  CG        10.6110  -11.4780   32.5400 C.2    61  ASP61       0.3671
     57  OD1       10.5000  -10.6620   33.4790 O.co2  61  ASP61      -0.2456
     58  OD2       10.7120  -12.7120   32.7230 O.co2  61  ASP61      -0.2456
     59  N         16.3990  -11.6710   31.6360 N.3    63  CYS63      -0.1221
     60  CA        16.8760  -13.0200   31.3510 C.3    63  CYS63       0.1808
     61  C         15.7150  -13.9830   31.2620 C.2    63  CYS63       0.2602
     62  O         15.9130  -15.1740   31.0340 O.2    63  CYS63      -0.2717
     63  CB        17.8540  -13.5080   32.4240 C.3    63  CYS63       0.0970
     64  SG        19.4320  -12.6060   32.4330 S.3    63  CYS63      -0.0800
     65  N         14.5030  -13.4730   31.4660 N.am   64  GLY64      -0.1942
     66  CA        13.3280  -14.3210   31.3670 C.3    64  GLY64       0.2014
     67  C         12.8930  -14.4740   29.9180 C.2    64  GLY64       0.2639
     68  O         12.1310  -15.3800   29.5840 O.2    64  GLY64      -0.2714
     69  N         13.3750  -13.5830   29.0540 N.am   65  GLY65      -0.1939
     70  CA        13.0170  -13.6520   27.6480 C.3    65  GLY65       0.2014
     71  C         12.4230  -12.3570   27.1410 C.2    65  GLY65       0.2639
     72  O         12.1130  -11.4570   27.9310 O.2    65  GLY65      -0.2714
     73  N         12.2540  -12.2580   25.8260 N.am   66  GLY66      -0.1939
     74  CA        11.6910  -11.0470   25.2450 C.3    66  GLY66       0.2014
     75  C         11.5280  -11.1140   23.7370 C.2    66  GLY66       0.2639
     76  O         11.8680  -12.1150   23.1230 O.2    66  GLY66      -0.2714
     77  N         10.9900  -10.0450   23.1540 N.am   67  TYR67      -0.1959
     78  CA        10.8010   -9.9470   21.7070 C.3    67  TYR67       0.1771
     79  C         11.7470   -8.8880   21.1410 C.2    67  TYR67       0.2619
     80  O         11.9710   -7.8670   21.7730 O.2    67  TYR67      -0.2715
     81  CB         9.3660   -9.5400   21.3710 C.3    67  TYR67       0.0574
     82  CG         8.3290  -10.5950   21.6370 C.ar   67  TYR67      -0.0198
     83  CD1        8.4370  -11.8640   21.0800 C.ar   67  TYR67      -0.0009
     84  CD2        7.2120  -10.3110   22.4210 C.ar   67  TYR67      -0.0009
     85  CE1        7.4510  -12.8310   21.2990 C.ar   67  TYR67       0.0417
     86  CE2        6.2200  -11.2670   22.6450 C.ar   67  TYR67       0.0417
     87  CZ         6.3440  -12.5270   22.0830 C.ar   67  TYR67       0.1957
     88  OH         5.3660  -13.4760   22.3130 O.3    67  TYR67      -0.2866
     89  N         12.2900   -9.1340   19.9540 N.am   68  MET68      -0.1977
     90  CA        13.1980   -8.1940   19.3000 C.3    68  MET68       0.1605
     91  C         12.5160   -6.8540   18.9520 C.2    68  MET68       0.2287
     92  O         13.1490   -5.7880   19.0190 O.2    68  MET68      -0.2864
     93  CB        13.7690   -8.8110   18.0200 C.3    68  MET68       0.0413
     94  CG        14.6500  -10.0430   18.2280 C.3    68  MET68       0.0598
     95  SD        13.7240  -11.5480   18.6440 S.3    68  MET68      -0.1393
     96  CE        13.3650  -12.2350   17.0210 C.3    68  MET68       0.0692
     97  N         10.1740   -5.2660   20.5760 N.3    70  ASN70      -0.1240
     98  CA        10.1120   -4.4310   21.7800 C.3    70  ASN70       0.1653
     99  C         11.4630   -3.7510   21.9440 C.2    70  ASN70       0.2266
    100  O         11.5450   -2.5640   22.2680 O.2    70  ASN70      -0.2867
    101  CB         9.8270   -5.2860   23.0230 C.3    70  ASN70       0.1155
    102  CG         8.3900   -5.7910   23.0780 C.2    70  ASN70       0.2627
    103  OD1        8.0680   -6.7000   23.8430 O.2    70  ASN70      -0.2716
    104  ND2        7.5150   -5.1870   22.2720 N.am   70  ASN70      -0.0877
    105  N         12.9220  -15.6970   14.6770 N.3   134  ALA134     -0.1245
    106  CA        12.6680  -16.5460   15.8310 C.3   134  ALA134      0.1562
    107  C         12.4910  -17.9440   15.2730 C.2   134  ALA134      0.2260
    108  O         11.9680  -18.1150   14.1670 O.2   134  ALA134     -0.2867
    109  CB        11.4240  -16.1030   16.5580 C.3   134  ALA134      0.0290
    110  N         14.0620  -24.1960   18.3260 N.3   137  ALA137     -0.1231
    111  CA        15.3610  -24.8350   18.5210 C.3   137  ALA137      0.1694
    112  C         15.2590  -25.8710   19.6510 C.2   137  ALA137      0.2592
    113  O         16.2430  -26.1360   20.3500 O.2   137  ALA137     -0.2718
    114  CB        16.4300  -23.7870   18.8410 C.3   137  ALA137      0.0304
    115  N         14.0540  -26.4330   19.8220 N.am  138  SER138     -0.1952
    116  CA        13.7680  -27.4640   20.8330 C.3   138  SER138      0.1924
    117  C         14.6110  -28.7100   20.5710 C.2   138  SER138      0.2314
    118  O         15.5190  -29.0410   21.3310 O.2   138  SER138     -0.2863
    119  CB        12.2940  -27.9030   20.7830 C.3   138  SER138      0.2116
    120  OG        11.4080  -26.9100   21.2450 O.3   138  SER138     -0.2180
    121  N         20.4690  -29.0800   18.9450 N.3   143  GLN143     -0.1245
    122  CA        21.4750  -28.9260   19.9920 C.3   143  GLN143      0.1566
    123  C         22.8790  -29.3310   19.5440 C.2   143  GLN143      0.2260
    124  O         23.8360  -28.6160   19.8220 O.2   143  GLN143     -0.2867
    125  CB        21.0670  -29.7310   21.2230 C.3   143  GLN143      0.0367
    126  CG        21.1500  -28.9630   22.5340 C.3   143  GLN143      0.0905
    127  CD        20.0040  -27.9770   22.7290 C.2   143  GLN143      0.2608
    128  OE1       19.8320  -27.4160   23.8120 O.2   143  GLN143     -0.2717
    129  NE2       19.2190  -27.7580   21.6800 N.am  143  GLN143     -0.0878
    130  N          8.0620  -21.2050   18.6020 N.3   160  LEU160     -0.1231
    131  CA         9.1920  -20.2950   18.4940 C.3   160  LEU160      0.1693
    132  C          9.6670  -20.0980   19.9130 C.2   160  LEU160      0.2592
    133  O          8.9360  -19.5950   20.7570 O.2   160  LEU160     -0.2718
    134  CB         8.7500  -18.9620   17.8940 C.3   160  LEU160      0.0284
    135  CG         8.0170  -19.0530   16.5480 C.3   160  LEU160      0.0019
    136  CD1        7.5440  -17.6660   16.1490 C.3   160  LEU160      0.0001
    137  CD2        8.9220  -19.6420   15.4670 C.3   160  LEU160      0.0001
    138  N         10.8940  -20.5060   20.1810 N.am  161  ASN161     -0.1960
    139  CA        11.4330  -20.4080   21.5210 C.3   161  ASN161      0.1819
    140  C         12.8060  -19.7620   21.5690 C.2   161  ASN161      0.2621
    141  O         13.3010  -19.4430   22.6460 O.2   161  ASN161     -0.2715
    142  CB        11.5040  -21.8120   22.1190 C.3   161  ASN161      0.1195
    143  CG        12.0140  -22.8350   21.1250 C.2   161  ASN161      0.2630
    144  OD1       13.1690  -22.7900   20.7040 O.2   161  ASN161     -0.2716
    145  ND2       11.1430  -23.7540   20.7280 N.am  161  ASN161     -0.0877
    146  N         13.4190  -19.5620   20.4100 N.am  162  HIS162     -0.1959
    147  CA        14.7570  -18.9840   20.3600 C.3   162  HIS162      0.1787
    148  C         14.8200  -17.8600   19.3390 C.2   162  HIS162      0.2620
    149  O         14.1100  -17.8800   18.3350 O.2   162  HIS162     -0.2715
    150  CB        15.7770  -20.0830   20.0190 C.3   162  HIS162      0.0785
    151  CG        17.1950  -19.6150   19.9920 C.ar  162  HIS162      0.0821
    152  ND1       17.6480  -18.5610   20.7550 N.ar  162  HIS162     -0.2267
    153  CD2       18.2770  -20.0910   19.3300 C.ar  162  HIS162      0.1154
    154  CE1       18.9470  -18.4040   20.5650 C.ar  162  HIS162      0.1986
    155  NE2       19.3520  -19.3210   19.7060 N.ar  162  HIS162     -0.2212
    156  N         15.6610  -16.8720   19.6120 N.am  163  ALA163     -0.1977
    157  CA        15.8070  -15.7370   18.7170 C.3   163  ALA163      0.1597
    158  C         17.2370  -15.7070   18.2270 C.2   163  ALA163      0.2287
    159  O         18.1760  -15.7340   19.0210 O.2   163  ALA163     -0.2864
    160  CB        15.4630  -14.4300   19.4460 C.3   163  ALA163      0.0319
    161  N         25.5330  -19.1770   21.1000 N.3   184  TRP184     -0.1241
    162  CA        25.9230  -20.1610   22.0980 C.3   184  TRP184      0.1605
    163  C         27.4240  -20.3790   21.9900 C.2   184  TRP184      0.2264
    164  O         27.9010  -21.5110   22.1060 O.2   184  TRP184     -0.2867
    165  CB        25.2050  -21.4850   21.8370 C.3   184  TRP184      0.0550
    166  CG        23.7140  -21.4140   21.9660 C.ar  184  TRP184      0.0003
    167  CD1       22.9800  -20.3980   22.5170 C.ar  184  TRP184      0.0946
    168  CD2       22.7750  -22.4320   21.5930 C.ar  184  TRP184      0.0152
    169  NE1       21.6450  -20.7230   22.5090 N.ar  184  TRP184     -0.2442
    170  CE2       21.4900  -21.9650   21.9500 C.ar  184  TRP184      0.0810
    171  CE3       22.8960  -23.6950   20.9970 C.ar  184  TRP184      0.0012
    172  CZ2       20.3310  -22.7180   21.7310 C.ar  184  TRP184      0.0191
    173  CZ3       21.7400  -24.4460   20.7780 C.ar  184  TRP184      0.0001
    174  CH2       20.4780  -23.9500   21.1460 C.ar  184  TRP184      0.0015
    175  N          8.3000  -14.8460   12.8000 N.3   209  LEU209     -0.1245
    176  CA         8.4560  -13.6790   13.6400 C.3   209  LEU209      0.1561
    177  C          9.7740  -13.0180   13.3020 C.2   209  LEU209      0.2260
    178  O         10.6450  -12.8720   14.1490 O.2   209  LEU209     -0.2867
    179  CB         8.4460  -14.0700   15.1180 C.3   209  LEU209      0.0270
    180  CG         8.1280  -12.8910   16.0470 C.3   209  LEU209      0.0019
    181  CD1        6.6800  -12.4470   15.7720 C.3   209  LEU209      0.0001
    182  CD2        8.3130  -13.2770   17.5030 C.3   209  LEU209      0.0001
@<TRIPOS>BOND
     1   175   176    1
     2   177   176    1
     3   177   178    2
     4   176   179    1
     5   108   107    2
     6   105   106    1
     7   179   180    1
     8   107   106    1
     9   137   135    1
    10   181   180    1
    11   106   109    1
    12   180   182    1
    13   136   135    1
    14   135   134    1
    15    96    95    1
    16   134   131    1
    17    93    94    1
    18    93    90    1
    19   158   157    1
    20   158   159    2
    21    94    95    1
    22   110   111    1
    23   149   148    2
    24   131   130    1
    25   131   132    1
    26   111   114    1
    27   111   112    1
    28   157   160    1
    29   157   156    1
    30   121   122    1
    31    91    92    2
    32    91    90    1
    33    90    89    1
    34   153   155   ar
    35   153   151   ar
    36   148   156   am
    37   148   147    1
    38   123   124    2
    39   123   122    1
    40   112   115   am
    41   112   113    2
    42   155   154   ar
    43   115   116    1
    44   132   138   am
    45   132   133    2
    46    89    79   am
    47   151   150    1
    48   151   152   ar
    49   122   125    1
    50   150   147    1
    51   138   139    1
    52   147   146    1
    53   146   140   am
    54   154   152   ar
    55   117   116    1
    56   117   118    2
    57    97    98    1
    58   144   143    2
    59   145   143   am
    60    23    22    2
    61   173   171   ar
    62   173   174   ar
    63   119   116    1
    64   119   120    1
    65   171   168   ar
    66    17    16    2
    67    83    85   ar
    68    83    82   ar
    69   161   162    1
    70   143   142    1
    71    79    78    1
    72    79    80    2
    73   174   172   ar
    74   125   126    1
    75    85    87   ar
    76    81    82    1
    77    81    78    1
    78   139   140    1
    79   139   142    1
    80   140   141    2
    81   168   170   ar
    82   168   166   ar
    83    82    84   ar
    84   129   127   am
    85    78    77    1
    86   172   170   ar
    87    22    21    1
    88    98    99    1
    89    98   101    1
    90    21    20    1
    91    21    24    1
    92   165   166    1
    93   165   162    1
    94    99   100    2
    95   170   169   ar
    96   166   167   ar
    97   163   162    1
    98   163   164    2
    99    16    20   am
   100    16    15    1
   101    87    88    1
   102    87    86   ar
   103   104   102   am
   104    18    15    1
   105    18    19    1
   106    84    86   ar
   107   169   167   ar
   108   126   127    1
   109    24    25    1
   110   127   128    2
   111    15    14    1
   112   101   102    1
   113   102   103    2
   114    76    75    2
   115    77    75   am
   116     8     7    2
   117    75    74    1
   118    30    27   ar
   119    30    32   ar
   120    25    27   ar
   121    25    26   ar
   122     7     6    1
   123     7     9   am
   124     6     5    1
   125    27    29   ar
   126    32    33   ar
   127    49    48    2
   128    26    28   ar
   129     1     2    1
   130    74    73    1
   131    50    48   am
   132    48    47    1
   133    73    71   am
   134     5     2    1
   135    29    28   ar
   136    29    31   ar
   137     2     3    1
   138    33    31   ar
   139    41    40   ar
   140    39    38    1
   141    39    40    1
   142    38    35    1
   143    40    42   ar
   144    71    70    1
   145    71    72    2
   146    47    44    1
   147    13    12    2
   148    37    36    2
   149    12    11    1
   150     3     4    2
   151    70    69    1
   152    36    35    1
   153    36    43   am
   154    35    34    1
   155    44    43    1
   156    44    45    1
   157    11    10    1
   158    69    67   am
   159    45    51   am
   160    45    46    2
   161    51    52    1
   162    68    67    2
   163    67    66    1
   164    52    55    1
   165    52    53    1
   166    62    61    2
   167    55    56    1
   168    53    54    2
   169    61    60    1
   170    61    65   am
   171    60    59    1
   172    60    63    1
   173    66    65    1
   174    63    64    1
   175    56    58   ar
   176    56    57   ar
