@<TRIPOS>MOLECULE
tmp/1nlkB00.pdb
 151 141 0 0 0
SMALL
GASTEIGER

@<TRIPOS>ATOM
      1  N         24.6480   48.9750    9.0230 N.3    10  LYS10      -0.1245
      2  CA        24.6500   48.3900   10.3530 C.3    10  LYS10       0.1561
      3  C         23.3660   47.5950   10.6290 C.2    10  LYS10       0.2260
      4  O         22.3460   47.8000    9.9660 O.2    10  LYS10      -0.2867
      5  CB        24.8790   49.4930   11.3870 C.3    10  LYS10       0.0271
      6  CG        26.1860   50.2490   11.1650 C.3    10  LYS10       0.0035
      7  CD        26.4330   51.2700   12.2700 C.3    10  LYS10       0.0206
      8  CE        27.8270   51.8710   12.1570 C.3    10  LYS10       0.1093
      9  NZ        28.1340   52.8010   13.2840 N.3    10  LYS10      -0.1314
     10  N         37.3160   47.6760   13.9440 N.3    50  TYR50      -0.1241
     11  CA        37.2920   48.9380   14.6720 C.3    50  TYR50       0.1605
     12  C         38.4930   49.1220   15.5920 C.2    50  TYR50       0.2264
     13  O         38.4170   49.8630   16.5730 O.2    50  TYR50      -0.2867
     14  CB        35.9920   49.0640   15.4770 C.3    50  TYR50       0.0534
     15  CG        34.7790   49.4140   14.6400 C.ar   50  TYR50      -0.0201
     16  CD1       34.6750   50.6560   14.0240 C.ar   50  TYR50      -0.0009
     17  CD2       33.7420   48.5070   14.4660 C.ar   50  TYR50      -0.0009
     18  CE1       33.5780   50.9900   13.2580 C.ar   50  TYR50       0.0417
     19  CE2       32.6350   48.8270   13.7010 C.ar   50  TYR50       0.0417
     20  CZ        32.5580   50.0700   13.1000 C.ar   50  TYR50       0.1957
     21  OH        31.4550   50.3950   12.3430 O.3    50  TYR50      -0.2866
     22  N         39.4810   52.3090   17.3750 N.3    53  HIS53      -0.1241
     23  CA        38.6850   52.7590   18.5040 C.3    53  HIS53       0.1621
     24  C         38.8670   51.9130   19.7610 C.2    53  HIS53       0.2264
     25  O         38.1490   52.1090   20.7410 O.2    53  HIS53      -0.2867
     26  CB        37.2020   52.7900   18.1100 C.3    53  HIS53       0.0745
     27  CG        36.8890   53.7420   16.9960 C.ar   53  HIS53       0.0817
     28  ND1       37.4800   54.9840   16.8880 N.ar   53  HIS53      -0.2268
     29  CD2       36.0430   53.6380   15.9440 C.ar   53  HIS53       0.1154
     30  CE1       37.0120   55.6040   15.8200 C.ar   53  HIS53       0.1986
     31  NE2       36.1390   54.8080   15.2290 N.ar   53  HIS53      -0.2212
     32  N         38.7790   53.7710   22.9900 N.3    56  ARG56      -0.1245
     33  CA        37.6220   54.6380   23.2070 C.3    56  ARG56       0.1563
     34  C         36.6430   53.9560   24.1590 C.2    56  ARG56       0.2260
     35  O         36.4950   52.7360   24.1320 O.2    56  ARG56      -0.2867
     36  CB        36.9280   54.9440   21.8770 C.3    56  ARG56       0.0307
     37  CG        37.8440   55.4960   20.8010 C.3    56  ARG56       0.0489
     38  CD        38.5390   56.7630   21.2440 C.3    56  ARG56       0.2205
     39  NE        37.5870   57.7870   21.6630 N.pl3  56  ARG56      -0.0865
     40  CZ        37.1460   58.7680   20.8820 C.cat  56  ARG56       0.5346
     41  NH1       37.5660   58.8700   19.6250 N.pl3  56  ARG56       0.1354
     42  NH2       36.2990   59.6650   21.3680 N.pl3  56  ARG56       0.1354
     43  N         33.4550   53.8320   24.0640 N.3    58  PHE58      -0.1241
     44  CA        32.3120   53.2370   23.3680 C.3    58  PHE58       0.1605
     45  C         32.6630   51.9650   22.5830 C.2    58  PHE58       0.2264
     46  O         31.7740   51.3040   22.0490 O.2    58  PHE58      -0.2867
     47  CB        31.6720   54.2580   22.4180 C.3    58  PHE58       0.0534
     48  CG        32.6270   54.8290   21.4040 C.ar   58  PHE58      -0.0203
     49  CD1       32.9180   54.1360   20.2340 C.ar   58  PHE58      -0.0042
     50  CD2       33.2410   56.0530   21.6250 C.ar   58  PHE58      -0.0042
     51  CE1       33.8060   54.6510   19.3080 C.ar   58  PHE58      -0.0003
     52  CE2       34.1300   56.5750   20.7060 C.ar   58  PHE58      -0.0003
     53  CZ        34.4140   55.8740   19.5430 C.ar   58  PHE58      -0.0000
     54  N         30.0790   49.3290   20.7570 N.3    62  LEU62      -0.1245
     55  CA        30.0620   49.3710   19.3020 C.3    62  LEU62       0.1561
     56  C         30.2310   47.9560   18.7610 C.2    62  LEU62       0.2260
     57  O         29.4960   47.5330   17.8710 O.2    62  LEU62      -0.2867
     58  CB        31.1830   50.2850   18.7980 C.3    62  LEU62       0.0270
     59  CG        31.4170   50.4630   17.2950 C.3    62  LEU62       0.0019
     60  CD1       30.1440   50.9030   16.5870 C.3    62  LEU62       0.0001
     61  CD2       32.5330   51.4810   17.0850 C.3    62  LEU62       0.0001
     62  N         30.2840   59.9490    3.1740 N.3    86  ARG86      -0.1245
     63  CA        30.1030   60.5230    4.4950 C.3    86  ARG86       0.1563
     64  C         29.0750   61.6530    4.5280 C.2    86  ARG86       0.2260
     65  O         28.2920   61.7510    5.4730 O.2    86  ARG86      -0.2867
     66  CB        31.4500   60.9830    5.0470 C.3    86  ARG86       0.0307
     67  CG        32.4110   59.8240    5.3050 C.3    86  ARG86       0.0489
     68  CD        33.8140   60.3160    5.6080 C.3    86  ARG86       0.2205
     69  NE        33.8220   61.2480    6.7300 N.pl3  86  ARG86      -0.0865
     70  CZ        34.5920   62.3260    6.7970 C.cat  86  ARG86       0.5346
     71  NH1       35.4270   62.6050    5.8070 N.pl3  86  ARG86       0.1354
     72  NH2       34.4860   63.1480    7.8310 N.pl3  86  ARG86       0.1354
     73  N         25.7730   60.0270    4.4640 N.3    89  MET89      -0.1245
     74  CA        25.4990   59.3370    5.7210 C.3    89  MET89       0.1570
     75  C         24.9460   60.3170    6.7470 C.2    89  MET89       0.2261
     76  O         23.9350   60.0450    7.3920 O.2    89  MET89      -0.2867
     77  CB        26.7750   58.7150    6.2880 C.3    89  MET89       0.0387
     78  CG        27.2520   57.4540    5.6010 C.3    89  MET89       0.0595
     79  SD        28.9280   57.0040    6.1170 S.3    89  MET89      -0.1393
     80  CE        28.8630   57.2140    7.8240 C.3    89  MET89       0.0692
     81  N         27.3970   61.7710   12.9090 N.3    92  THR92      -0.1218
     82  CA        27.4410   60.6040   13.7860 C.3    92  THR92       0.1862
     83  C         26.2360   60.6130   14.7220 C.2    92  THR92       0.2287
     84  O         25.5700   59.5940   14.9170 O.2    92  THR92      -0.2866
     85  CB        28.7220   60.6240   14.6270 C.3    92  THR92       0.1770
     86  OG1       29.8370   60.9550   13.7880 O.3    92  THR92      -0.2211
     87  CG2       28.9600   59.2760   15.2670 C.3    92  THR92       0.0375
     88  N         21.3560   59.1060    8.1250 N.3   103  ARG103     -0.1245
     89  CA        21.2230   59.0820    9.5750 C.3   103  ARG103      0.1563
     90  C         20.0590   59.8910   10.1290 C.2   103  ARG103      0.2260
     91  O         19.3760   59.4460   11.0450 O.2   103  ARG103     -0.2867
     92  CB        22.5370   59.4730   10.2450 C.3   103  ARG103      0.0307
     93  CG        23.5590   58.3610   10.1620 C.3   103  ARG103      0.0489
     94  CD        24.9010   58.7940   10.6830 C.3   103  ARG103      0.2205
     95  NE        25.8100   57.6600   10.8080 N.pl3 103  ARG103     -0.0865
     96  CZ        27.1340   57.7520   10.7620 C.cat 103  ARG103      0.5346
     97  NH1       27.7170   58.9300   10.5880 N.pl3 103  ARG103      0.1354
     98  NH2       27.8750   56.6650   10.9070 N.pl3 103  ARG103      0.1354
     99  N         23.1910   57.6960   18.5330 N.3   110  ILE110     -0.1231
    100  CA        24.5890   57.7280   18.1090 C.3   110  ILE110      0.1692
    101  C         25.1950   56.3290   18.0740 C.2   110  ILE110      0.2592
    102  O         25.9470   56.0000   17.1670 O.2   110  ILE110     -0.2718
    103  CB        25.4460   58.6790   18.9980 C.3   110  ILE110      0.0266
    104  CG1       26.8610   58.8120   18.4300 C.3   110  ILE110      0.0019
    105  CG2       25.4960   58.1910   20.4390 C.3   110  ILE110      0.0020
    106  CD1       27.6760   59.9220   19.0700 C.3   110  ILE110      0.0001
    107  N         24.8070   55.4940   19.0290 N.am  111  ASP111     -0.1974
    108  CA        25.3110   54.1260   19.1160 C.3   111  ASP111      0.1709
    109  C         24.4280   53.1350   18.3570 C.2   111  ASP111      0.2293
    110  O         24.3250   51.9660   18.7230 O.2   111  ASP111     -0.2864
    111  CB        25.4240   53.7090   20.5900 C.3   111  ASP111      0.1436
    112  CG        24.2330   54.1620   21.4280 C.2   111  ASP111      0.3671
    113  OD1       23.1210   53.6160   21.2540 O.co2 111  ASP111     -0.2456
    114  OD2       24.4120   55.0670   22.2740 O.co2 111  ASP111     -0.2456
    115  N         23.5940   54.2020   14.6190 N.3   113  ASN113     -0.1240
    116  CA        23.4200   55.1410   13.5300 C.3   113  ASN113      0.1653
    117  C         23.3350   54.6000   12.1070 C.2   113  ASN113      0.2266
    118  O         23.7510   55.2640   11.1570 O.2   113  ASN113     -0.2867
    119  CB        24.4360   56.2780   13.6440 C.3   113  ASN113      0.1155
    120  CG        25.8410   55.7770   13.8070 C.2   113  ASN113      0.2627
    121  OD1       26.1160   54.6040   13.5530 O.2   113  ASN113     -0.2716
    122  ND2       26.7300   56.6380   14.2770 N.am  113  ASN113     -0.0877
    123  N         24.6230   53.3910    9.4790 N.3   115  VAL115     -0.1231
    124  CA        25.6520   53.2040    8.4640 C.3   115  VAL115      0.1692
    125  C         27.0720   53.5120    8.9060 C.2   115  VAL115      0.2592
    126  O         27.3120   54.2450    9.8660 O.2   115  VAL115     -0.2718
    127  CB        25.3860   54.0780    7.1960 C.3   115  VAL115      0.0266
    128  CG1       24.3960   53.4020    6.2620 C.3   115  VAL115      0.0020
    129  CG2       24.9000   55.4750    7.6000 C.3   115  VAL115      0.0020
    130  N         28.0130   52.9380    8.1730 N.am  116  HIS116     -0.1962
    131  CA        29.4170   53.1680    8.4100 C.3   116  HIS116      0.1787
    132  C         29.9920   53.6260    7.0760 C.2   116  HIS116      0.2620
    133  O         29.5040   53.2300    6.0190 O.2   116  HIS116     -0.2715
    134  CB        30.1230   51.8800    8.8620 C.3   116  HIS116      0.0785
    135  CG        31.6100   51.9360    8.7110 C.ar  116  HIS116      0.0821
    136  ND1       32.4400   52.4550    9.6870 N.ar  116  HIS116     -0.2267
    137  CD2       32.4110   51.6510    7.6580 C.ar  116  HIS116      0.1154
    138  CE1       33.6800   52.4980    9.2310 C.ar  116  HIS116      0.1986
    139  NE2       33.6860   52.0150    8.0000 N.ar  116  HIS116     -0.2212
    140  N         31.0310   54.4500    7.1380 N.am  117  GLY117     -0.1954
    141  CA        31.7010   54.9190    5.9400 C.3   117  GLY117      0.1869
    142  C         33.1660   55.0830    6.2910 C.2   117  GLY117      0.2309
    143  O         33.4690   55.4260    7.4400 O.2   117  GLY117     -0.2863
    144  N         36.6270   56.7390    6.7650 N.3   119  ASP119     -0.1239
    145  CA        36.8650   58.1650    6.9870 C.3   119  ASP119      0.1674
    146  C         37.9520   58.8160    6.1380 C.2   119  ASP119      0.2266
    147  O         38.0760   60.0340    6.1250 O.2   119  ASP119     -0.2867
    148  CB        37.0420   58.4970    8.4790 C.3   119  ASP119      0.1410
    149  CG        38.0640   57.6180    9.1720 C.2   119  ASP119      0.3668
    150  OD1       39.2400   57.5990    8.7380 O.co2 119  ASP119     -0.2456
    151  OD2       37.6840   56.9610   10.1710 O.co2 119  ASP119     -0.2456
@<TRIPOS>BOND
     1    62    63    1
     2    73    74    1
     3    63    64    1
     4    63    66    1
     5    64    65    2
     6    66    67    1
     7    67    68    1
     8    78    79    1
     9    78    77    1
    10    68    69    1
    11    74    77    1
    12    74    75    1
    13    71    70    1
    14   141   142    1
    15   141   140    1
    16   133   132    2
    17    79    80    1
    18   147   146    2
    19   146   145    1
    20   128   127    1
    21   142   143    2
    22    69    70    2
    23    75    76    2
    24   144   145    1
    25    70    72    1
    26   145   148    1
    27   132   140   am
    28   132   131    1
    29   127   129    1
    30   127   124    1
    31   137   139   ar
    32   137   135   ar
    33   139   138   ar
    34    88    89    1
    35   130   131    1
    36   130   125   am
    37   131   134    1
    38   124   125    1
    39   124   123    1
    40   148   149    1
    41   135   134    1
    42   135   136   ar
    43   150   149   ar
    44   125   126    2
    45     1     2    1
    46   149   151   ar
    47   138   136   ar
    48    89    90    1
    49    89    92    1
    50     4     3    2
    51    90    91    2
    52    93    92    1
    53    93    94    1
    54     2     3    1
    55     2     5    1
    56    97    96    1
    57    94    95    1
    58    96    95    2
    59    96    98    1
    60   118   117    2
    61     6     5    1
    62     6     7    1
    63   117   116    1
    64     8     7    1
    65     8     9    1
    66    21    20    1
    67    81    82    1
    68    20    18   ar
    69    20    19   ar
    70    18    16   ar
    71   116   119    1
    72   116   115    1
    73   121   120    2
    74   119   120    1
    75    19    17   ar
    76    82    85    1
    77    82    83    1
    78    86    85    1
    79   120   122   am
    80    10    11    1
    81    16    15   ar
    82    17    15   ar
    83    85    87    1
    84    15    14    1
    85    11    14    1
    86    11    12    1
    87    83    84    2
    88    31    30   ar
    89    31    29   ar
    90    12    13    2
    91    30    28   ar
    92    29    27   ar
    93    60    59    1
    94    28    27   ar
    95    27    26    1
    96    61    59    1
    97   102   101    2
    98    59    58    1
    99    22    23    1
   100    57    56    2
   101   101   100    1
   102   101   107   am
   103   100    99    1
   104   100   103    1
   105    26    23    1
   106   109   110    2
   107   109   108    1
   108   104   103    1
   109   104   106    1
   110    23    24    1
   111    56    55    1
   112    58    55    1
   113   103   105    1
   114   107   108    1
   115   108   111    1
   116    55    54    1
   117    51    53   ar
   118    51    49   ar
   119    53    52   ar
   120    41    40    1
   121    24    25    2
   122    49    48   ar
   123   111   112    1
   124    52    50   ar
   125    37    38    1
   126    37    36    1
   127    40    42    1
   128    40    39    2
   129    38    39    1
   130   113   112   ar
   131    48    50   ar
   132    48    47    1
   133   112   114   ar
   134    36    33    1
   135    46    45    2
   136    47    44    1
   137    45    44    1
   138    32    33    1
   139    33    34    1
   140    44    43    1
   141    35    34    2
