@<TRIPOS>MOLECULE
tmp/1nlmB00.pdb
 172 162 0 0 0
SMALL
GASTEIGER

@<TRIPOS>ATOM
      1  N         66.2540  -53.3220   23.1960 N.3    10  THR10      -0.1203
      2  CA        67.4790  -53.4650   22.4320 C.3    10  THR10       0.1994
      3  C         68.6340  -52.8820   23.2360 C.2    10  THR10       0.2618
      4  O         68.4720  -51.8840   23.9390 O.2    10  THR10      -0.2717
      5  CB        67.3570  -52.7470   21.0650 C.3    10  THR10       0.1784
      6  OG1       67.8600  -53.6030   20.0390 O.3    10  THR10      -0.2211
      7  CG2       68.1430  -51.4510   21.0460 C.3    10  THR10       0.0376
      8  N         69.7950  -53.5180   23.1330 N.am   11  GLY11      -0.1942
      9  CA        70.9650  -53.0610   23.8580 C.3    11  GLY11       0.2014
     10  C         71.2700  -51.5880   23.6820 C.2    11  GLY11       0.2639
     11  O         71.4740  -50.8730   24.6660 O.2    11  GLY11      -0.2714
     12  N         71.3000  -51.1280   22.4330 N.am   12  GLY12      -0.1954
     13  CA        71.5950  -49.7270   22.1690 C.3    12  GLY12       0.1869
     14  C         70.7280  -48.7330   22.9320 C.2    12  GLY12       0.2309
     15  O         71.1450  -47.6020   23.1800 O.2    12  GLY12      -0.2863
     16  N         71.2370  -50.1870   27.6170 N.3    15  PHE15      -0.1241
     17  CA        72.5140  -49.9900   28.2870 C.3    15  PHE15       0.1605
     18  C         72.8140  -48.5170   28.5400 C.2    15  PHE15       0.2264
     19  O         73.2580  -48.1420   29.6260 O.2    15  PHE15      -0.2867
     20  CB        73.6320  -50.6450   27.4830 C.3    15  PHE15       0.0534
     21  CG        73.4530  -52.1280   27.3100 C.ar   15  PHE15      -0.0203
     22  CD1       73.1400  -52.9330   28.4010 C.ar   15  PHE15      -0.0042
     23  CD2       73.5930  -52.7200   26.0620 C.ar   15  PHE15      -0.0042
     24  CE1       72.9680  -54.3010   28.2480 C.ar   15  PHE15      -0.0003
     25  CE2       73.4230  -54.0860   25.9030 C.ar   15  PHE15      -0.0003
     26  CZ        73.1090  -54.8780   26.9990 C.ar   15  PHE15      -0.0000
     27  N         80.6400  -48.0040   28.3780 N.3   158  ARG158     -0.1245
     28  CA        80.8870  -49.0530   29.3740 C.3   158  ARG158      0.1563
     29  C         82.1450  -48.7810   30.2190 C.2   158  ARG158      0.2260
     30  O         83.2440  -48.5750   29.6800 O.2   158  ARG158     -0.2867
     31  CB        81.0090  -50.4130   28.6650 C.3   158  ARG158      0.0307
     32  CG        81.9890  -50.4060   27.4790 C.3   158  ARG158      0.0489
     33  CD        81.9690  -51.7370   26.7580 C.3   158  ARG158      0.2205
     34  NE        82.3740  -52.8480   27.6150 N.pl3 158  ARG158     -0.0865
     35  CZ        82.3190  -54.1260   27.2500 C.cat 158  ARG158      0.5346
     36  NH1       81.8700  -54.4500   26.0400 N.pl3 158  ARG158      0.1354
     37  NH2       82.7070  -55.0780   28.0910 N.pl3 158  ARG158      0.1354
     38  N         86.4250  -57.1190   14.8110 N.3   183  VAL183     -0.1245
     39  CA        85.1760  -57.3010   15.5350 C.3   183  VAL183      0.1561
     40  C         84.0170  -57.0640   14.5820 C.2   183  VAL183      0.2260
     41  O         84.1010  -56.1920   13.7100 O.2   183  VAL183     -0.2867
     42  CB        85.0540  -56.3250   16.7340 C.3   183  VAL183      0.0252
     43  CG1       83.8090  -56.6630   17.5460 C.3   183  VAL183      0.0019
     44  CG2       86.2790  -56.4240   17.6080 C.3   183  VAL183      0.0019
     45  N         80.3730  -56.5240   15.4460 N.3   185  GLY185     -0.1210
     46  CA        79.1640  -56.3010   16.2160 C.3   185  GLY185      0.1956
     47  C         79.0030  -57.4570   17.1880 C.2   185  GLY185      0.2613
     48  O         79.8060  -58.3940   17.1820 O.2   185  GLY185     -0.2717
     49  N         77.9740  -57.3990   18.0260 N.am  186  SER186     -0.1938
     50  CA        77.7250  -58.4530   18.9930 C.3   186  SER186      0.2055
     51  C         77.3110  -59.7620   18.3460 C.2   186  SER186      0.2642
     52  O         77.2220  -60.7840   19.0200 O.2   186  SER186     -0.2714
     53  CB        76.6350  -58.0290   19.9760 C.3   186  SER186      0.2130
     54  OG        75.3960  -57.8670   19.3180 O.3   186  SER186     -0.2179
     55  N         77.0600  -59.7550   17.0440 N.am  187  GLN187     -0.1976
     56  CA        76.6350  -60.9900   16.3900 C.3   187  GLN187      0.1601
     57  C         77.6340  -61.5390   15.3920 C.2   187  GLN187      0.2287
     58  O         77.5040  -62.6720   14.9410 O.2   187  GLN187     -0.2864
     59  CB        75.2880  -60.7690   15.6960 C.3   187  GLN187      0.0394
     60  CG        74.2480  -60.1630   16.6110 C.3   187  GLN187      0.0908
     61  CD        74.0540  -60.9770   17.8750 C.2   187  GLN187      0.2608
     62  OE1       73.4900  -60.4930   18.8580 O.2   187  GLN187     -0.2717
     63  NE2       74.5130  -62.2250   17.8530 N.am  187  GLN187     -0.0878
     64  N         87.0230  -61.9350   16.0080 N.3   212  GLN212     -0.1245
     65  CA        85.7790  -62.2880   16.7000 C.3   212  GLN212      0.1566
     66  C         84.7520  -62.6200   15.6050 C.2   212  GLN212      0.2260
     67  O         84.2510  -61.7260   14.9240 O.2   212  GLN212     -0.2867
     68  CB        85.2880  -61.1130   17.5490 C.3   212  GLN212      0.0367
     69  CG        83.9680  -61.3740   18.2510 C.3   212  GLN212      0.0905
     70  CD        82.8040  -60.6400   17.6060 C.2   212  GLN212      0.2608
     71  OE1       81.6370  -60.9330   17.8770 O.2   212  GLN212     -0.2717
     72  NE2       83.1160  -59.6680   16.7610 N.am  212  GLN212     -0.0878
     73  N         82.8330  -64.8090   20.7400 N.3   238  PHE238     -0.1227
     74  CA        82.4390  -63.5450   21.3560 C.3   238  PHE238      0.1736
     75  C         83.3650  -63.1860   22.5170 C.2   238  PHE238      0.2595
     76  O         83.3970  -63.8540   23.5450 O.2   238  PHE238     -0.2718
     77  CB        80.9800  -63.6220   21.8390 C.3   238  PHE238      0.0547
     78  CG        80.4810  -62.3560   22.4990 C.ar  238  PHE238     -0.0202
     79  CD1       80.7540  -62.0950   23.8480 C.ar  238  PHE238     -0.0042
     80  CD2       79.7340  -61.4290   21.7810 C.ar  238  PHE238     -0.0042
     81  CE1       80.2870  -60.9300   24.4660 C.ar  238  PHE238     -0.0003
     82  CE2       79.2620  -60.2540   22.3980 C.ar  238  PHE238     -0.0003
     83  CZ        79.5430  -60.0130   23.7430 C.ar  238  PHE238     -0.0000
     84  N         84.1170  -62.1110   22.3450 N.am  239  ILE239     -0.1966
     85  CA        85.0510  -61.6650   23.3680 C.3   239  ILE239      0.1727
     86  C         84.3250  -61.1450   24.6140 C.2   239  ILE239      0.2616
     87  O         83.6490  -60.1310   24.5640 O.2   239  ILE239     -0.2715
     88  CB        85.9500  -60.5520   22.7920 C.3   239  ILE239      0.0290
     89  CG1       86.7150  -61.0970   21.5870 C.3   239  ILE239      0.0022
     90  CG2       86.8940  -60.0110   23.8600 C.3   239  ILE239      0.0023
     91  CD1       87.3790  -60.0170   20.7560 C.3   239  ILE239      0.0001
     92  N         84.4710  -61.8460   25.7300 N.am  240  ASP240     -0.1971
     93  CA        83.8350  -61.4370   26.9870 C.3   240  ASP240      0.1709
     94  C         84.4370  -60.1480   27.5300 C.2   240  ASP240      0.2293
     95  O         83.7270  -59.2260   27.9170 O.2   240  ASP240     -0.2864
     96  CB        83.9850  -62.5440   28.0290 C.3   240  ASP240      0.1436
     97  CG        83.0050  -63.6720   27.8150 C.2   240  ASP240      0.3671
     98  OD1       83.2700  -64.7980   28.2980 O.co2 240  ASP240     -0.2456
     99  OD2       81.9630  -63.4210   27.1720 O.co2 240  ASP240     -0.2456
    100  N         85.9450  -57.2640   26.3580 N.3   242  MET242     -0.1245
    101  CA        86.1930  -56.3750   25.2320 C.3   242  MET242      0.1570
    102  C         87.2740  -55.3450   25.5640 C.2   242  MET242      0.2261
    103  O         88.0120  -54.8980   24.6740 O.2   242  MET242     -0.2867
    104  CB        84.8990  -55.6500   24.8530 C.3   242  MET242      0.0387
    105  CG        84.8720  -55.1240   23.4260 C.3   242  MET242      0.0595
    106  SD        85.2370  -56.4650   22.3010 S.3   242  MET242     -0.1393
    107  CE        86.4390  -55.6860   21.1840 C.3   242  MET242      0.0692
    108  N         90.4970  -54.3560   23.3430 N.3   246  TYR246     -0.1241
    109  CA        90.7250  -52.9960   22.8600 C.3   246  TYR246      0.1605
    110  C         92.1100  -52.5150   23.2610 C.2   246  TYR246      0.2264
    111  O         92.8160  -51.9240   22.4510 O.2   246  TYR246     -0.2867
    112  CB        89.6780  -52.0270   23.4250 C.3   246  TYR246      0.0534
    113  CG        88.3370  -52.0420   22.7050 C.ar  246  TYR246     -0.0201
    114  CD1       87.1400  -52.0150   23.4280 C.ar  246  TYR246     -0.0009
    115  CD2       88.2640  -52.0320   21.3000 C.ar  246  TYR246     -0.0009
    116  CE1       85.9000  -51.9700   22.7760 C.ar  246  TYR246      0.0417
    117  CE2       87.0280  -51.9870   20.6400 C.ar  246  TYR246      0.0417
    118  CZ        85.8500  -51.9520   21.3890 C.ar  246  TYR246      0.1957
    119  OH        84.6190  -51.8660   20.7710 O.3   246  TYR246     -0.2866
    120  N         82.5220  -53.2040   12.5600 N.3   255  ARG255     -0.1245
    121  CA        81.2690  -52.5710   12.1570 C.3   255  ARG255      0.1563
    122  C         81.0950  -51.2620   12.9290 C.2   255  ARG255      0.2260
    123  O         81.7280  -51.0580   13.9680 O.2   255  ARG255     -0.2867
    124  CB        80.0800  -53.4900   12.4310 C.3   255  ARG255      0.0307
    125  CG        80.1840  -54.8380   11.7370 C.3   255  ARG255      0.0489
    126  CD        79.0090  -55.1420   10.8010 C.3   255  ARG255      0.2205
    127  NE        79.3070  -54.8020    9.4100 N.pl3 255  ARG255     -0.0865
    128  CZ        78.7210  -55.3640    8.3530 C.cat 255  ARG255      0.5346
    129  NH1       77.7960  -56.3060    8.5090 N.pl3 255  ARG255      0.1354
    130  NH2       79.0610  -54.9780    7.1370 N.pl3 255  ARG255      0.1354
    131  N         78.4070  -49.9610   14.6610 N.3   257  GLY257     -0.1210
    132  CA        77.2850  -49.8570   15.5790 C.3   257  GLY257      0.1956
    133  C         77.5600  -48.7140   16.5530 C.2   257  GLY257      0.2612
    134  O         78.6930  -48.5360   16.9730 O.2   257  GLY257     -0.2717
    135  N         76.5270  -47.9430   16.8930 N.am  258  ALA258     -0.1965
    136  CA        76.6350  -46.7820   17.7820 C.3   258  ALA258      0.1728
    137  C         77.5440  -46.9000   19.0200 C.2   258  ALA258      0.2616
    138  O         78.4360  -46.0670   19.2210 O.2   258  ALA258     -0.2715
    139  CB        75.2460  -46.3510   18.2100 C.3   258  ALA258      0.0334
    140  N         77.3050  -47.9110   19.8520 N.am  259  LEU259     -0.1963
    141  CA        78.1040  -48.1210   21.0510 C.3   259  LEU259      0.1728
    142  C         79.5580  -48.4630   20.7390 C.2   259  LEU259      0.2616
    143  O         80.4820  -47.9550   21.3820 O.2   259  LEU259     -0.2715
    144  CB        77.5140  -49.2500   21.8960 C.3   259  LEU259      0.0311
    145  CG        76.0350  -49.1470   22.2690 C.3   259  LEU259      0.0022
    146  CD1       75.6330  -50.4080   23.0530 C.3   259  LEU259      0.0001
    147  CD2       75.7850  -47.8750   23.0830 C.3   259  LEU259      0.0001
    148  N         79.7620  -49.3370   19.7620 N.am  260  THR260     -0.1951
    149  CA        81.1040  -49.7420   19.3960 C.3   260  THR260      0.1897
    150  C         81.9380  -48.5490   18.9730 C.2   260  THR260      0.2313
    151  O         83.1500  -48.5190   19.2120 O.2   260  THR260     -0.2863
    152  CB        81.0760  -50.7870   18.2640 C.3   260  THR260      0.1794
    153  OG1       80.3970  -51.9570   18.7330 O.3   260  THR260     -0.2208
    154  CG2       82.4980  -51.1700   17.8340 C.3   260  THR260      0.0378
    155  N         82.9840  -46.5450   22.0400 N.3   263  GLU263     -0.1245
    156  CA        84.0010  -47.2930   22.7620 C.3   263  GLU263      0.1567
    157  C         85.3660  -47.0700   22.1370 C.2   263  GLU263      0.2260
    158  O         86.3270  -46.7100   22.8230 O.2   263  GLU263     -0.2867
    159  CB        83.6680  -48.7760   22.7520 C.3   263  GLU263      0.0388
    160  CG        82.3980  -49.0770   23.4890 C.3   263  GLU263      0.1160
    161  CD        81.9990  -50.5320   23.4140 C.2   263  GLU263      0.3649
    162  OE1       80.9860  -50.8850   24.0660 O.co2 263  GLU263     -0.2457
    163  OE2       82.6900  -51.3100   22.7090 O.co2 263  GLU263     -0.2457
    164  N         74.8350  -46.8820   10.2990 N.3   283  GLN283     -0.1245
    165  CA        76.2150  -47.1170   10.7280 C.3   283  GLN283      0.1566
    166  C         77.2350  -46.2700    9.9940 C.2   283  GLN283      0.2260
    167  O         78.3100  -45.9920   10.5260 O.2   283  GLN283     -0.2867
    168  CB        76.5890  -48.6030   10.6080 C.3   283  GLN283      0.0367
    169  CG        76.1820  -49.4440   11.8130 C.3   283  GLN283      0.0905
    170  CD        76.7470  -50.8530   11.7650 C.2   283  GLN283      0.2608
    171  OE1       77.8690  -51.0760   11.2960 O.2   283  GLN283     -0.2717
    172  NE2       75.9810  -51.8100   12.2660 N.am  283  GLN283     -0.0878
@<TRIPOS>BOND
     1   130   128    1
     2   128   129    1
     3   128   127    2
     4   127   126    1
     5   166   167    2
     6   166   165    1
     7   164   165    1
     8   168   165    1
     9   168   169    1
    10   126   125    1
    11   171   170    2
    12   125   124    1
    13   170   169    1
    14   170   172   am
    15   121   124    1
    16   121   120    1
    17   121   122    1
    18   122   123    2
    19    41    40    2
    20    40    39    1
    21   131   132    1
    22    38    39    1
    23    67    66    2
    24    58    57    2
    25    57    56    1
    26    45    46    1
    27    39    42    1
    28   132   133    1
    29    66    65    1
    30    59    56    1
    31    59    60    1
    32    64    65    1
    33    46    47    1
    34    56    55    1
    35   133   135   am
    36   133   134    2
    37    60    61    1
    38    65    68    1
    39    42    43    1
    40    42    44    1
    41    72    70   am
    42   135   136    1
    43    55    51   am
    44    48    47    2
    45    47    49   am
    46    68    69    1
    47    70    71    2
    48    70    69    1
    49   136   139    1
    50   136   137    1
    51   154   152    1
    52    63    61   am
    53    61    62    2
    54    49    50    1
    55   152   153    1
    56   152   149    1
    57    51    50    1
    58    51    52    2
    59   150   151    2
    60   150   149    1
    61    50    53    1
    62   137   138    2
    63   137   140   am
    64    54    53    1
    65   149   148    1
    66   148   142   am
    67   140   141    1
    68     6     5    1
    69   117   115   ar
    70   117   118   ar
    71   142   141    1
    72   142   143    2
    73    73    74    1
    74    91    89    1
    75   119   118    1
    76     7     5    1
    77   141   144    1
    78     5     2    1
    79   107   106    1
    80   115   113   ar
    81    74    77    1
    82    74    75    1
    83   118   116   ar
    84    89    88    1
    85    80    82   ar
    86    80    78   ar
    87    77    78    1
    88   144   145    1
    89   155   156    1
    90   157   156    1
    91   157   158    2
    92    13    12    1
    93    13    14    1
    94   145   146    1
    95   145   147    1
    96   106   105    1
    97    84    75   am
    98    84    85    1
    99    82    83   ar
   100     2     1    1
   101     2     3    1
   102    12    10   am
   103   111   110    2
   104    78    79   ar
   105    75    76    2
   106   113   112    1
   107   113   114   ar
   108   163   161   ar
   109   159   156    1
   110   159   160    1
   111   116   114   ar
   112    88    85    1
   113    88    90    1
   114   109   110    1
   115   109   108    1
   116   109   112    1
   117    14    15    2
   118     8     3   am
   119     8     9    1
   120     3     4    2
   121    85    86    1
   122   161   160    1
   123   161   162   ar
   124   105   104    1
   125    10     9    1
   126    10    11    2
   127    83    81   ar
   128    79    81   ar
   129    87    86    2
   130    86    92   am
   131   103   102    2
   132   104   101    1
   133   101   102    1
   134   101   100    1
   135    92    93    1
   136    25    23   ar
   137    25    26   ar
   138    36    35    1
   139    23    21   ar
   140    33    32    1
   141    33    34    1
   142    93    94    1
   143    93    96    1
   144    26    24   ar
   145    99    97   ar
   146    35    34    2
   147    35    37    1
   148    21    20    1
   149    21    22   ar
   150    32    31    1
   151    20    17    1
   152    94    95    2
   153    16    17    1
   154    97    96    1
   155    97    98   ar
   156    24    22   ar
   157    17    18    1
   158    27    28    1
   159    18    19    2
   160    31    28    1
   161    28    29    1
   162    30    29    2
