@<TRIPOS>MOLECULE
tmp/1nloA00.pdb
 141 140 0 0 0
SMALL
GASTEIGER

@<TRIPOS>ATOM
      1  N         49.3510    8.0570    1.6040 N.3     5  LEU5       -0.1231
      2  CA        49.5400    9.5340    1.5590 C.3     5  LEU5        0.1693
      3  C         49.8870    9.9540    0.1330 C.2     5  LEU5        0.2592
      4  O         49.5180   11.0200   -0.3180 O.2     5  LEU5       -0.2718
      5  CB        50.6890    9.9250    2.4910 C.3     5  LEU5        0.0284
      6  CG        50.2090    9.8940    3.9420 C.3     5  LEU5        0.0019
      7  CD1       51.4130   10.0060    4.8800 C.3     5  LEU5        0.0001
      8  CD2       49.2610   11.0700    4.1870 C.3     5  LEU5        0.0001
      9  N         50.6040    9.1270   -0.5790 N.am    6  TYR6       -0.1976
     10  CA        50.9860    9.4890   -1.9720 C.3     6  TYR6        0.1639
     11  C         51.0200    8.2420   -2.8520 C.2     6  TYR6        0.2290
     12  O         51.0840    7.1290   -2.3700 O.2     6  TYR6       -0.2864
     13  CB        52.3810   10.1120   -1.9590 C.3     6  TYR6        0.0560
     14  CG        52.5730   10.9000   -0.6900 C.ar    6  TYR6       -0.0198
     15  CD1       51.8380   12.0680   -0.4790 C.ar    6  TYR6       -0.0009
     16  CD2       53.5030   10.4740    0.2660 C.ar    6  TYR6       -0.0009
     17  CE1       52.0280   12.8110    0.6870 C.ar    6  TYR6        0.0417
     18  CE2       53.6930   11.2160    1.4360 C.ar    6  TYR6        0.0417
     19  CZ        52.9550   12.3870    1.6470 C.ar    6  TYR6        0.1957
     20  OH        53.1430   13.1230    2.7980 O.3     6  TYR6       -0.2866
     21  N         52.5600    5.4070   -4.5120 N.3     8  TYR8       -0.1241
     22  CA        53.9080    4.7990   -4.3590 C.3     8  TYR8        0.1605
     23  C         54.2720    3.9850   -5.5980 C.2     8  TYR8        0.2264
     24  O         53.5220    3.1390   -6.0410 O.2     8  TYR8       -0.2867
     25  CB        53.9300    3.9050   -3.1210 C.3     8  TYR8        0.0534
     26  CG        55.1460    3.0210   -3.1270 C.ar    8  TYR8       -0.0201
     27  CD1       56.4100    3.6010   -3.1090 C.ar    8  TYR8       -0.0009
     28  CD2       55.0080    1.6300   -3.1410 C.ar    8  TYR8       -0.0009
     29  CE1       57.5530    2.7930   -3.1060 C.ar    8  TYR8        0.0417
     30  CE2       56.1460    0.8160   -3.1370 C.ar    8  TYR8        0.0417
     31  CZ        57.4210    1.3980   -3.1200 C.ar    8  TYR8        0.1957
     32  OH        58.5440    0.5960   -3.1180 O.3     8  TYR8       -0.2866
     33  N         59.2030   -0.4240   -6.0990 N.3    11  ARG11      -0.1231
     34  CA        60.6740   -0.3180   -6.3080 C.3    11  ARG11       0.1694
     35  C         61.2250   -1.6930   -6.6900 C.2    11  ARG11       0.2592
     36  O         62.2630   -1.8080   -7.3110 O.2    11  ARG11      -0.2718
     37  CB        61.3410    0.1560   -5.0140 C.3    11  ARG11       0.0321
     38  CG        61.0080    1.6310   -4.7750 C.3    11  ARG11       0.0489
     39  CD        62.3020    2.4250   -4.5870 C.3    11  ARG11       0.2205
     40  NE        62.1870    3.7360   -5.2860 N.pl3  11  ARG11      -0.0865
     41  CZ        63.2540    4.4540   -5.5110 C.cat  11  ARG11       0.5346
     42  NH1       64.4270    4.0250   -5.1270 N.pl3  11  ARG11       0.1354
     43  NH2       63.1490    5.6030   -6.1210 N.pl3  11  ARG11       0.1354
     44  N         60.5340   -2.7370   -6.3240 N.am   12  THR12      -0.1953
     45  CA        61.0110   -4.1070   -6.6630 C.3    12  THR12       0.1897
     46  C         59.8230   -4.9600   -7.1090 C.2    12  THR12       0.2313
     47  O         58.7170   -4.4780   -7.2450 O.2    12  THR12      -0.2863
     48  CB        61.6590   -4.7410   -5.4300 C.3    12  THR12       0.1794
     49  OG1       60.6440   -5.1840   -4.5410 O.3    12  THR12      -0.2208
     50  CG2       62.5420   -3.7080   -4.7280 C.3    12  THR12       0.0378
     51  N         58.2710   -7.0110   -5.4340 N.3    14  THR14      -0.1203
     52  CA        57.6320   -7.5510   -4.2000 C.3    14  THR14       0.1994
     53  C         56.6340   -6.5340   -3.6320 C.2    14  THR14       0.2617
     54  O         55.7540   -6.8810   -2.8720 O.2    14  THR14      -0.2717
     55  CB        58.7130   -7.8340   -3.1550 C.3    14  THR14       0.1784
     56  OG1       59.9840   -7.4900   -3.6900 O.3    14  THR14      -0.2211
     57  CG2       58.6960   -9.3180   -2.7880 C.3    14  THR14       0.0376
     58  N         56.7640   -5.2840   -3.9860 N.am   15  ASP15      -0.1973
     59  CA        55.8190   -4.2610   -3.4500 C.3    15  ASP15       0.1709
     60  C         54.8040   -3.8760   -4.5260 C.2    15  ASP15       0.2293
     61  O         55.0240   -4.0740   -5.7040 O.2    15  ASP15      -0.2864
     62  CB        56.5920   -3.0100   -3.0240 C.3    15  ASP15       0.1436
     63  CG        57.9950   -3.4010   -2.5610 C.2    15  ASP15       0.3671
     64  OD1       58.8440   -3.6050   -3.4140 O.co2  15  ASP15      -0.2456
     65  OD2       58.1970   -3.4880   -1.3610 O.co2  15  ASP15      -0.2456
     66  N         57.7300   -6.0470   10.0720 N.3    31  GLU31      -0.1245
     67  CA        58.9980   -6.3590    9.3540 C.3    31  GLU31       0.1567
     68  C         59.9470   -5.1630    9.4510 C.2    31  GLU31       0.2260
     69  O         61.1530   -5.3110    9.4160 O.2    31  GLU31      -0.2867
     70  CB        58.6920   -6.6490    7.8820 C.3    31  GLU31       0.0388
     71  CG        59.9520   -7.1780    7.1910 C.3    31  GLU31       0.1160
     72  CD        60.2170   -8.6160    7.6420 C.2    31  GLU31       0.3649
     73  OE1       59.3990   -9.4700    7.3430 O.co2  31  GLU31      -0.2457
     74  OE2       61.2350   -8.8380    8.2770 O.co2  31  GLU31      -0.2457
     75  N         60.1600   -0.8780    8.1690 N.3    33  ASP33      -0.1225
     76  CA        59.4970    0.3130    7.5670 C.3    33  ASP33       0.1805
     77  C         58.6750   -0.1190    6.3510 C.2    33  ASP33       0.2597
     78  O         58.1200    0.6980    5.6430 O.2    33  ASP33      -0.2718
     79  CB        60.5610    1.3220    7.1300 C.3    33  ASP33       0.1424
     80  CG        61.2360    1.9210    8.3650 C.2    33  ASP33       0.3668
     81  OD1       60.6060    2.7300    9.0260 O.co2  33  ASP33      -0.2456
     82  OD2       62.3710    1.5600    8.6290 O.co2  33  ASP33      -0.2456
     83  N         58.5910   -1.3970    6.1000 N.am   34  TRP34      -0.1976
     84  CA        57.8040   -1.8760    4.9300 C.3    34  TRP34       0.1640
     85  C         56.7640   -2.8960    5.3980 C.2    34  TRP34       0.2290
     86  O         57.0900   -3.9050    5.9930 O.2    34  TRP34      -0.2864
     87  CB        58.7470   -2.5230    3.9120 C.3    34  TRP34       0.0576
     88  CG        59.5590   -1.4580    3.2450 C.ar   34  TRP34       0.0006
     89  CD1       60.6220   -0.8300    3.8000 C.ar   34  TRP34       0.0946
     90  CD2       59.3920   -0.8840    1.9160 C.ar   34  TRP34       0.0152
     91  NE1       61.1190    0.0930    2.8960 N.ar   34  TRP34      -0.2442
     92  CE2       60.3940    0.0970    1.7200 C.ar   34  TRP34       0.0810
     93  CE3       58.4790   -1.1170    0.8710 C.ar   34  TRP34       0.0012
     94  CZ2       60.4840    0.8210    0.5300 C.ar   34  TRP34       0.0191
     95  CZ3       58.5690   -0.3900   -0.3280 C.ar   34  TRP34       0.0001
     96  CH2       59.5690    0.5770   -0.4970 C.ar   34  TRP34       0.0015
     97  N         54.1090   -5.3690   -0.8240 N.3    47  TYR47      -0.1241
     98  CA        54.5900   -4.6020    0.3490 C.3    47  TYR47       0.1605
     99  C         54.3710   -3.1100    0.0870 C.2    47  TYR47       0.2264
    100  O         53.9280   -2.7180   -0.9750 O.2    47  TYR47      -0.2867
    101  CB        56.0760   -4.8940    0.5610 C.3    47  TYR47       0.0534
    102  CG        56.2490   -6.3210    1.0390 C.ar   47  TYR47      -0.0201
    103  CD1       55.6460   -6.7430    2.2340 C.ar   47  TYR47      -0.0009
    104  CD2       57.0150   -7.2240    0.2890 C.ar   47  TYR47      -0.0009
    105  CE1       55.8100   -8.0610    2.6730 C.ar   47  TYR47       0.0417
    106  CE2       57.1770   -8.5430    0.7310 C.ar   47  TYR47       0.0417
    107  CZ        56.5740   -8.9610    1.9230 C.ar   47  TYR47       0.1957
    108  OH        56.7310  -10.2610    2.3580 O.3    47  TYR47      -0.2866
    109  N         55.7800    1.1050    1.4320 N.3    49  PRO49      -0.2102
    110  CA        56.5920    1.9780    2.2940 C.3    49  PRO49       0.1504
    111  C         55.6800    2.7070    3.2870 C.2    49  PRO49       0.2576
    112  O         54.6800    3.2880    2.9160 O.2    49  PRO49      -0.2718
    113  CB        57.2540    2.9440    1.3080 C.3    49  PRO49       0.0282
    114  CG        56.3790    2.9370    0.0340 C.3    49  PRO49       0.0208
    115  CD        55.5660    1.6280    0.0650 C.3    49  PRO49       0.0893
    116  N         56.0030    2.6500    4.5500 N.am   50  SER50      -0.1938
    117  CA        55.1420    3.3040    5.5760 C.3    50  SER50       0.2055
    118  C         55.2090    4.8300    5.4610 C.2    50  SER50       0.2643
    119  O         54.3180    5.5270    5.9060 O.2    50  SER50      -0.2714
    120  CB        55.6100    2.8800    6.9680 C.3    50  SER50       0.2130
    121  OG        57.0100    2.6390    6.9380 O.3    50  SER50      -0.2179
    122  N         56.2480    5.3660    4.8830 N.am   51  ASN51      -0.1957
    123  CA        56.3430    6.8430    4.7700 C.3    51  ASN51       0.1819
    124  C         55.3620    7.3470    3.7080 C.2    51  ASN51       0.2621
    125  O         55.0590    8.5210    3.6390 O.2    51  ASN51      -0.2715
    126  CB        57.7690    7.2230    4.3810 C.3    51  ASN51       0.1195
    127  CG        58.0360    6.7820    2.9460 C.2    51  ASN51       0.2630
    128  OD1       57.4090    5.8650    2.4590 O.2    51  ASN51      -0.2716
    129  ND2       58.9480    7.3990    2.2460 N.am   51  ASN51      -0.0877
    130  N         54.8580    6.4700    2.8810 N.am   52  TYR52      -0.1974
    131  CA        53.8960    6.9110    1.8320 C.3    52  TYR52       0.1639
    132  C         52.4710    6.5500    2.2590 C.2    52  TYR52       0.2290
    133  O         51.5160    6.8470    1.5670 O.2    52  TYR52      -0.2864
    134  CB        54.2250    6.2230    0.5040 C.3    52  TYR52       0.0560
    135  CG        55.0060    7.1760   -0.3720 C.ar   52  TYR52      -0.0198
    136  CD1       56.2010    7.7310    0.0970 C.ar   52  TYR52      -0.0009
    137  CD2       54.5360    7.5070   -1.6510 C.ar   52  TYR52      -0.0009
    138  CE1       56.9270    8.6160   -0.7090 C.ar   52  TYR52       0.0417
    139  CE2       55.2640    8.3950   -2.4570 C.ar   52  TYR52       0.0417
    140  CZ        56.4590    8.9480   -1.9840 C.ar   52  TYR52       0.1957
    141  OH        57.1770    9.8210   -2.7760 O.3    52  TYR52      -0.2866
@<TRIPOS>BOND
     1    36    35    2
     2    47    46    2
     3    46    45    1
     4    35    44   am
     5    35    34    1
     6    45    44    1
     7    45    48    1
     8    34    33    1
     9    34    37    1
    10    43    41    1
    11    24    23    2
    12    61    60    2
    13    23    22    1
    14    41    40    2
    15    41    42    1
    16    51    52    1
    17    48    50    1
    18    48    49    1
    19    40    39    1
    20    37    38    1
    21    38    39    1
    22    60    59    1
    23    21    22    1
    24    22    25    1
    25    52    53    1
    26    52    55    1
    27    58    53   am
    28    58    59    1
    29    56    55    1
    30    53    54    2
    31    59    62    1
    32    64    63   ar
    33    55    57    1
    34    28    30   ar
    35    28    26   ar
    36    30    31   ar
    37    26    25    1
    38    26    27   ar
    39    31    32    1
    40    31    29   ar
    41    27    29   ar
    42    62    63    1
    43    11    12    2
    44    11    10    1
    45   141   140    1
    46    63    65   ar
    47   139   140   ar
    48   139   137   ar
    49   140   138   ar
    50    10    13    1
    51    10     9    1
    52    13    14    1
    53   137   135   ar
    54   100    99    2
    55    97    98    1
    56   138   136   ar
    57    14    15   ar
    58    14    16   ar
    59     9     3   am
    60    96    95   ar
    61    96    94   ar
    62    15    17   ar
    63   135   136   ar
    64   135   134    1
    65    95    93   ar
    66     4     3    2
    67   114   115    1
    68   114   113    1
    69   115   109    1
    70    99    98    1
    71     3     2    1
    72    16    18   ar
    73   104   106   ar
    74   104   102   ar
    75    98   101    1
    76   134   131    1
    77    94    92   ar
    78   101   102    1
    79    17    19   ar
    80   106   107   ar
    81    93    90   ar
    82   102   103   ar
    83   113   110    1
    84   109   110    1
    85    18    19   ar
    86     2     1    1
    87     2     5    1
    88   133   132    2
    89    19    20    1
    90    92    90   ar
    91    92    91   ar
    92   131   132    1
    93   131   130    1
    94    90    88   ar
    95   107   108    1
    96   107   105   ar
    97   103   105   ar
    98   129   127   am
    99   110   111    1
   100   128   127    2
   101     5     6    1
   102   130   124   am
   103    91    89   ar
   104   112   111    2
   105   127   126    1
   106    88    89   ar
   107    88    87    1
   108   111   116   am
   109   125   124    2
   110   124   123    1
   111    87    84    1
   112     6     8    1
   113     6     7    1
   114   126   123    1
   115   116   117    1
   116   123   122    1
   117   122   118   am
   118    84    85    1
   119    84    83    1
   120    85    86    2
   121   118   117    1
   122   118   119    2
   123   117   120    1
   124    78    77    2
   125    83    77   am
   126    77    76    1
   127   121   120    1
   128    79    76    1
   129    79    80    1
   130    71    72    1
   131    71    70    1
   132    73    72   ar
   133    76    75    1
   134    72    74   ar
   135    70    67    1
   136    80    82   ar
   137    80    81   ar
   138    67    68    1
   139    67    66    1
   140    69    68    2
