@<TRIPOS>MOLECULE
tmp/1nlpA00.pdb
 154 154 0 0 0
SMALL
GASTEIGER

@<TRIPOS>ATOM
      1  N         50.2110   -3.6110   -6.4660 N.3     5  LEU5       -0.1231
      2  CA        50.0860   -4.9190   -7.1730 C.3     5  LEU5        0.1693
      3  C         48.9180   -5.7080   -6.5890 C.2     5  LEU5        0.2592
      4  O         48.2700   -6.4710   -7.2770 O.2     5  LEU5       -0.2718
      5  CB        51.3790   -5.7160   -6.9910 C.3     5  LEU5        0.0284
      6  CG        52.5170   -5.0180   -7.7380 C.3     5  LEU5        0.0019
      7  CD1       53.8420   -5.7060   -7.4090 C.3     5  LEU5        0.0001
      8  CD2       52.2620   -5.1000   -9.2440 C.3     5  LEU5        0.0001
      9  N         48.6430   -5.5370   -5.3260 N.am    6  TYR6       -0.1976
     10  CA        47.5160   -6.2950   -4.7150 C.3     6  TYR6        0.1639
     11  C         46.9170   -5.5130   -3.5490 C.2     6  TYR6        0.2290
     12  O         47.5190   -4.5990   -3.0240 O.2     6  TYR6       -0.2864
     13  CB        48.0470   -7.6310   -4.2060 C.3     6  TYR6        0.0560
     14  CG        49.0010   -8.1940   -5.2260 C.ar    6  TYR6       -0.0198
     15  CD1       48.4980   -8.8400   -6.3600 C.ar    6  TYR6       -0.0009
     16  CD2       50.3850   -8.0690   -5.0460 C.ar    6  TYR6       -0.0009
     17  CE1       49.3760   -9.3650   -7.3120 C.ar    6  TYR6        0.0417
     18  CE2       51.2600   -8.5920   -5.9990 C.ar    6  TYR6        0.0417
     19  CZ        50.7580   -9.2410   -7.1330 C.ar    6  TYR6        0.1957
     20  OH        51.6260   -9.7560   -8.0750 O.3     6  TYR6       -0.2866
     21  N         46.4580   -4.4260   -0.1160 N.3     8  TYR8       -0.1227
     22  CA        47.2820   -4.6660    1.0950 C.3     8  TYR8        0.1736
     23  C         46.4350   -4.4780    2.3520 C.2     8  TYR8        0.2595
     24  O         45.8460   -3.4370    2.5670 O.2     8  TYR8       -0.2718
     25  CB        48.4680   -3.7040    1.1140 C.3     8  TYR8        0.0548
     26  CG        49.1100   -3.7010    2.4700 C.ar    8  TYR8       -0.0200
     27  CD1       49.5690   -4.9000    3.0030 C.ar    8  TYR8       -0.0009
     28  CD2       49.2560   -2.5100    3.1840 C.ar    8  TYR8       -0.0009
     29  CE1       50.1770   -4.9210    4.2630 C.ar    8  TYR8        0.0417
     30  CE2       49.8640   -2.5220    4.4440 C.ar    8  TYR8        0.0417
     31  CZ        50.3250   -3.7300    4.9850 C.ar    8  TYR8        0.1957
     32  OH        50.9250   -3.7450    6.2280 O.3     8  TYR8       -0.2866
     33  N         46.3780   -5.4810    3.1840 N.am    9  GLU9       -0.1979
     34  CA        45.5780   -5.3680    4.4380 C.3     9  GLU9        0.1602
     35  C         46.4980   -4.9490    5.5880 C.2     9  GLU9        0.2287
     36  O         47.1250   -5.7720    6.2250 O.2     9  GLU9       -0.2864
     37  CB        44.9300   -6.7170    4.7630 C.3     9  GLU9        0.0415
     38  CG        45.9100   -7.8490    4.4480 C.3     9  GLU9        0.1163
     39  CD        45.3660   -9.1650    5.0080 C.2     9  GLU9        0.3649
     40  OE1       44.4720   -9.7230    4.3940 O.co2   9  GLU9       -0.2457
     41  OE2       45.8530   -9.5910    6.0420 O.co2   9  GLU9       -0.2457
     42  N         47.8310   -3.7860    9.2820 N.3    11  ARG11      -0.1231
     43  CA        47.4100   -4.3080   10.6140 C.3    11  ARG11       0.1694
     44  C         47.7140   -3.2700   11.7000 C.2    11  ARG11       0.2592
     45  O         47.1690   -3.3190   12.7850 O.2    11  ARG11      -0.2718
     46  CB        48.1730   -5.5990   10.9210 C.3    11  ARG11       0.0321
     47  CG        47.7300   -6.6980    9.9520 C.3    11  ARG11       0.0489
     48  CD        48.9610   -7.4160    9.3950 C.3    11  ARG11       0.2205
     49  NE        48.5250   -8.5420    8.5210 N.pl3  11  ARG11      -0.0865
     50  CZ        48.0910   -9.6540    9.0510 C.cat  11  ARG11       0.5346
     51  NH1       48.0410   -9.7870   10.3500 N.pl3  11  ARG11       0.1354
     52  NH2       47.7090  -10.6350    8.2800 N.pl3  11  ARG11       0.1354
     53  N         48.5790   -2.3320   11.4220 N.am   12  THR12      -0.1953
     54  CA        48.9100   -1.3010   12.4460 C.3    12  THR12       0.1897
     55  C         48.2690    0.0310   12.0560 C.2    12  THR12       0.2313
     56  O         47.6730    0.1610   11.0040 O.2    12  THR12      -0.2863
     57  CB        50.4290   -1.1310   12.5330 C.3    12  THR12       0.1794
     58  OG1       50.7290    0.1220   13.1320 O.3    12  THR12      -0.2208
     59  CG2       51.0370   -1.1870   11.1310 C.3    12  THR12       0.0378
     60  N         49.8500    2.6170   11.3400 N.3    14  THR14      -0.1203
     61  CA        50.8610    3.4070   10.5810 C.3    14  THR14       0.1994
     62  C         50.6610    3.1890    9.0820 C.2    14  THR14       0.2617
     63  O         50.6730    4.1210    8.3040 O.2    14  THR14      -0.2717
     64  CB        52.2700    2.9520   10.9670 C.3    14  THR14       0.1784
     65  OG1       52.2230    1.6060   11.4210 O.3    14  THR14      -0.2211
     66  CG2       52.8190    3.8480   12.0760 C.3    14  THR14       0.0376
     67  N         50.4910    1.9630    8.6670 N.am   15  ASP15      -0.1973
     68  CA        50.3090    1.6910    7.2150 C.3    15  ASP15       0.1709
     69  C         48.8210    1.6180    6.8690 C.2    15  ASP15       0.2293
     70  O         48.0000    1.2290    7.6750 O.2    15  ASP15      -0.2864
     71  CB        50.9820    0.3640    6.8540 C.3    15  ASP15       0.1436
     72  CG        52.2940    0.2280    7.6290 C.2    15  ASP15       0.3671
     73  OD1       52.2340    0.1310    8.8440 O.co2  15  ASP15      -0.2456
     74  OD2       53.3360    0.2220    6.9950 O.co2  15  ASP15      -0.2456
     75  N         63.7290    4.1010    3.4600 N.3    31  GLU31      -0.1231
     76  CA        63.9610    3.5930    4.8410 C.3    31  GLU31       0.1699
     77  C         64.1930    2.0830    4.7960 C.2    31  GLU31       0.2593
     78  O         65.1710    1.5770    5.3110 O.2    31  GLU31      -0.2718
     79  CB        62.7380    3.8940    5.7080 C.3    31  GLU31       0.0402
     80  CG        63.0820    3.6530    7.1790 C.3    31  GLU31       0.1161
     81  CD        63.7940    4.8820    7.7460 C.2    31  GLU31       0.3649
     82  OE1       63.1090    5.8250    8.1070 O.co2  31  GLU31      -0.2457
     83  OE2       65.0120    4.8600    7.8090 O.co2  31  GLU31      -0.2457
     84  N         63.3000    1.3610    4.1830 N.am   32  GLY32      -0.1942
     85  CA        63.4620   -0.1180    4.1010 C.3    32  GLY32       0.2014
     86  C         62.4070   -0.6970    3.1570 C.2    32  GLY32       0.2639
     87  O         62.1960   -0.2030    2.0670 O.2    32  GLY32      -0.2714
     88  N         61.7430   -1.7420    3.5670 N.am   33  ASP33      -0.1957
     89  CA        60.7020   -2.3540    2.6940 C.3    33  ASP33       0.1840
     90  C         59.3480   -1.7060    2.9810 C.2    33  ASP33       0.2622
     91  O         58.3120   -2.2250    2.6150 O.2    33  ASP33      -0.2715
     92  CB        60.6160   -3.8540    2.9820 C.3    33  ASP33       0.1450
     93  CG        61.9450   -4.5210    2.6220 C.2    33  ASP33       0.3671
     94  OD1       62.9130   -4.2850    3.3260 O.co2  33  ASP33      -0.2456
     95  OD2       61.9710   -5.2560    1.6490 O.co2  33  ASP33      -0.2456
     96  N         59.3430   -0.5790    3.6370 N.am   34  TRP34      -0.1974
     97  CA        58.0500    0.0920    3.9460 C.3    34  TRP34       0.1640
     98  C         58.1540    1.5850    3.6280 C.2    34  TRP34       0.2290
     99  O         58.9800    2.2920    4.1700 O.2    34  TRP34      -0.2864
    100  CB        57.7210   -0.1040    5.4270 C.3    34  TRP34       0.0576
    101  CG        57.2550   -1.5090    5.6420 C.ar   34  TRP34       0.0006
    102  CD1       58.0390   -2.5360    6.0460 C.ar   34  TRP34       0.0946
    103  CD2       55.9180   -2.0590    5.4660 C.ar   34  TRP34       0.0152
    104  NE1       57.2660   -3.6810    6.1320 N.ar   34  TRP34      -0.2442
    105  CE2       55.9520   -3.4380    5.7840 C.ar   34  TRP34       0.0810
    106  CE3       54.6910   -1.5010    5.0660 C.ar   34  TRP34       0.0012
    107  CZ2       54.8070   -4.2340    5.7070 C.ar   34  TRP34       0.0191
    108  CZ3       53.5380   -2.2990    4.9880 C.ar   34  TRP34       0.0001
    109  CH2       53.5970   -3.6620    5.3070 C.ar   34  TRP34       0.0015
    110  N         51.7760    3.9750    5.5430 N.3    47  TYR47      -0.1241
    111  CA        52.8980    3.2300    4.9220 C.3    47  TYR47       0.1605
    112  C         52.3430    2.1560    3.9900 C.2    47  TYR47       0.2264
    113  O         51.1490    1.9420    3.9090 O.2    47  TYR47      -0.2867
    114  CB        53.7360    2.5740    6.0170 C.3    47  TYR47       0.0534
    115  CG        54.7920    3.5440    6.4840 C.ar   47  TYR47      -0.0201
    116  CD1       54.4160    4.7130    7.1530 C.ar   47  TYR47      -0.0009
    117  CD2       56.1460    3.2770    6.2490 C.ar   47  TYR47      -0.0009
    118  CE1       55.3910    5.6160    7.5870 C.ar   47  TYR47       0.0417
    119  CE2       57.1230    4.1810    6.6820 C.ar   47  TYR47       0.0417
    120  CZ        56.7450    5.3510    7.3520 C.ar   47  TYR47       0.1957
    121  OH        57.7080    6.2430    7.7800 O.3    47  TYR47      -0.2866
    122  N         53.5820   -1.8020    1.9460 N.3    49  PRO49      -0.2102
    123  CA        54.5880   -2.8440    1.6770 C.3    49  PRO49       0.1504
    124  C         55.0600   -2.7560    0.2210 C.2    49  PRO49       0.2576
    125  O         54.2750   -2.8130   -0.7040 O.2    49  PRO49      -0.2718
    126  CB        53.8420   -4.1480    1.9660 C.3    49  PRO49       0.0282
    127  CG        52.3350   -3.8260    1.8500 C.3    49  PRO49       0.0208
    128  CD        52.1950   -2.3030    2.0380 C.3    49  PRO49       0.0893
    129  N         56.3410   -2.5880    0.0230 N.am   50  SER50      -0.1938
    130  CA        56.8910   -2.4550   -1.3600 C.3    50  SER50       0.2055
    131  C         56.6270   -3.7140   -2.1920 C.2    50  SER50       0.2643
    132  O         56.5470   -3.6540   -3.4030 O.2    50  SER50      -0.2714
    133  CB        58.3990   -2.2230   -1.2770 C.3    50  SER50       0.2130
    134  OG        59.0710   -3.4740   -1.3450 O.3    50  SER50      -0.2179
    135  N         56.5110   -4.8540   -1.5720 N.am   51  ASN51      -0.1957
    136  CA        56.2810   -6.0960   -2.3550 C.3    51  ASN51       0.1819
    137  C         54.8560   -6.1130   -2.9200 C.2    51  ASN51       0.2621
    138  O         54.5790   -6.7910   -3.8870 O.2    51  ASN51      -0.2715
    139  CB        56.4910   -7.3010   -1.4420 C.3    51  ASN51       0.1195
    140  CG        55.3750   -7.3490   -0.4030 C.2    51  ASN51       0.2630
    141  OD1       54.7960   -6.3340   -0.0790 O.2    51  ASN51      -0.2716
    142  ND2       55.0470   -8.4910    0.1340 N.am   51  ASN51      -0.0877
    143  N         53.9520   -5.3720   -2.3350 N.am   52  TYR52      -0.1974
    144  CA        52.5530   -5.3600   -2.8570 C.3    52  TYR52       0.1639
    145  C         52.3630   -4.1560   -3.7810 C.2    52  TYR52       0.2290
    146  O         51.2890   -3.9350   -4.3090 O.2    52  TYR52      -0.2864
    147  CB        51.5670   -5.2570   -1.6910 C.3    52  TYR52       0.0560
    148  CG        51.1120   -6.6360   -1.2790 C.ar   52  TYR52      -0.0198
    149  CD1       52.0570   -7.6120   -0.9450 C.ar   52  TYR52      -0.0009
    150  CD2       49.7440   -6.9390   -1.2250 C.ar   52  TYR52      -0.0009
    151  CE1       51.6380   -8.8890   -0.5570 C.ar   52  TYR52       0.0417
    152  CE2       49.3250   -8.2180   -0.8370 C.ar   52  TYR52       0.0417
    153  CZ        50.2720   -9.1930   -0.5030 C.ar   52  TYR52       0.1957
    154  OH        49.8600  -10.4520   -0.1200 O.3    52  TYR52      -0.2866
@<TRIPOS>BOND
     1     8     6    1
     2    20    19    1
     3     6     7    1
     4     6     5    1
     5    17    19   ar
     6    17    15   ar
     7     4     3    2
     8     2     5    1
     9     2     3    1
    10     2     1    1
    11    19    18   ar
    12     3     9   am
    13    15    14   ar
    14    18    16   ar
    15     9    10    1
    16    14    16   ar
    17    14    13    1
    18    10    13    1
    19    10    11    1
    20   146   145    2
    21   138   137    2
    22   145   144    1
    23    11    12    2
    24   132   131    2
    25   137   136    1
    26   137   143   am
    27   144   143    1
    28   144   147    1
    29   136   135    1
    30   136   139    1
    31   131   135   am
    32   131   130    1
    33   147   148    1
    34   139   140    1
    35   130   133    1
    36   130   129    1
    37   134   133    1
    38   148   150   ar
    39   148   149   ar
    40   150   152   ar
    41   149   151   ar
    42   152   153   ar
    43   125   124    2
    44   151   153   ar
    45   153   154    1
    46   140   141    2
    47   140   142   am
    48    21    22    1
    49   129   124   am
    50   124   123    1
    51    22    25    1
    52    22    23    1
    53    25    26    1
    54    95    93   ar
    55   123   122    1
    56   123   126    1
    57   127   126    1
    58   127   128    1
    59   122   128    1
    60    87    86    2
    61    23    24    2
    62    23    33   am
    63    26    27   ar
    64    26    28   ar
    65    91    90    2
    66    93    92    1
    67    93    94   ar
    68    89    90    1
    69    89    92    1
    70    89    88    1
    71    90    96   am
    72    27    29   ar
    73    86    88   am
    74    86    85    1
    75    33    34    1
    76    28    30   ar
    77    75    76    1
    78    98    97    1
    79    98    99    2
    80    96    97    1
    81   113   112    2
    82    97   100    1
    83   112   111    1
    84    85    84    1
    85    84    77   am
    86    29    31   ar
    87    40    39   ar
    88    34    37    1
    89    34    35    1
    90    30    31   ar
    91    38    37    1
    92    38    39    1
    93    77    76    1
    94    77    78    2
    95    76    79    1
    96   111   110    1
    97   111   114    1
    98    31    32    1
    99   108   106   ar
   100   108   109   ar
   101    39    41   ar
   102   106   103   ar
   103   109   107   ar
   104   100   101    1
   105   103   101   ar
   106   103   105   ar
   107    35    36    2
   108   101   102   ar
   109   107   105   ar
   110    79    80    1
   111   105   104   ar
   112   114   115    1
   113   102   104   ar
   114   117   115   ar
   115   117   119   ar
   116   115   116   ar
   117   119   120   ar
   118    71    68    1
   119    71    72    1
   120    69    68    1
   121    69    70    2
   122    74    72   ar
   123   116   118   ar
   124    80    81    1
   125    68    67    1
   126   120   118   ar
   127   120   121    1
   128    72    73   ar
   129    81    83   ar
   130    81    82   ar
   131    52    50    1
   132    63    62    2
   133    49    50    2
   134    49    48    1
   135    67    62   am
   136    50    51    1
   137    62    61    1
   138    42    43    1
   139    48    47    1
   140    47    46    1
   141    61    64    1
   142    61    60    1
   143    43    46    1
   144    43    44    1
   145    64    65    1
   146    64    66    1
   147    56    55    2
   148    59    57    1
   149    53    44   am
   150    53    54    1
   151    44    45    2
   152    55    54    1
   153    54    57    1
   154    57    58    1
