@<TRIPOS>MOLECULE
tmp/1nltA00.pdb
 148 140 0 0 0
SMALL
GASTEIGER

@<TRIPOS>ATOM
      1  N          8.8360   41.3220   70.4110 N.3     7  ILE7       -0.1245
      2  CA        10.0610   40.5610   70.6140 C.3     7  ILE7        0.1561
      3  C         10.7410   40.6050   69.2430 C.2     7  ILE7        0.2260
      4  O         10.2280   40.0420   68.2790 O.2     7  ILE7       -0.2867
      5  CB         9.7830   39.0860   70.9820 C.3     7  ILE7        0.0252
      6  CG1        9.1330   39.0050   72.3590 C.3     7  ILE7        0.0019
      7  CG2       11.0840   38.2860   70.9700 C.3     7  ILE7        0.0019
      8  CD1        8.7010   37.5820   72.7440 C.3     7  ILE7        0.0001
      9  N         13.7630   39.5470   66.8280 N.3     9  HIS9       -0.1241
     10  CA        14.7930   38.5280   66.7030 C.3     9  HIS9        0.1621
     11  C         15.3370   38.4950   65.2820 C.2     9  HIS9        0.2264
     12  O         14.6050   38.1720   64.3410 O.2     9  HIS9       -0.2867
     13  CB        14.1960   37.1610   67.0400 C.3     9  HIS9        0.0745
     14  CG        15.1970   36.0510   67.0730 C.ar    9  HIS9        0.0817
     15  ND1       15.8580   35.6760   68.2260 N.ar    9  HIS9       -0.2268
     16  CD2       15.6400   35.2120   66.1030 C.ar    9  HIS9        0.1154
     17  CE1       16.6530   34.6560   67.9680 C.ar    9  HIS9        0.1986
     18  NE2       16.5390   34.3530   66.6830 N.ar    9  HIS9       -0.2212
     19  N         17.5540   37.0080   62.1780 N.3    11  ILE11      -0.1231
     20  CA        17.9950   35.7040   61.6970 C.3    11  ILE11       0.1692
     21  C         19.1120   35.9180   60.6910 C.2    11  ILE11       0.2592
     22  O         18.9270   36.6210   59.6940 O.2    11  ILE11      -0.2718
     23  CB        16.8500   34.9530   60.9730 C.3    11  ILE11       0.0266
     24  CG1       15.6640   34.7890   61.9080 C.3    11  ILE11       0.0019
     25  CG2       17.3400   33.6250   60.4380 C.3    11  ILE11       0.0020
     26  CD1       14.4810   34.1080   61.2520 C.3    11  ILE11       0.0001
     27  N         20.2690   35.3170   60.9460 N.am   12  SER12      -0.1952
     28  CA        21.3890   35.4690   60.0270 C.3    12  SER12       0.1924
     29  C         21.1750   34.4990   58.8710 C.2    12  SER12       0.2314
     30  O         20.3330   33.5810   58.9420 O.2    12  SER12      -0.2863
     31  CB        22.7300   35.1550   60.7080 C.3    12  SER12       0.2116
     32  OG        23.1020   36.1650   61.6260 O.3    12  SER12      -0.2180
     33  N         15.6220   29.7240   52.6370 N.3    22  ARG22      -0.1245
     34  CA        15.8080   28.7880   53.7290 C.3    22  ARG22       0.1563
     35  C         14.6150   28.8060   54.6690 C.2    22  ARG22       0.2260
     36  O         13.8570   29.7790   54.7080 O.2    22  ARG22      -0.2867
     37  CB        17.0820   29.1350   54.5020 C.3    22  ARG22       0.0307
     38  CG        17.6320   27.9930   55.3440 C.3    22  ARG22       0.0489
     39  CD        17.7660   28.3730   56.8190 C.3    22  ARG22       0.2205
     40  NE        18.6590   29.5110   57.0400 N.pl3  22  ARG22      -0.0865
     41  CZ        18.9780   29.9880   58.2400 C.cat  22  ARG22       0.5346
     42  NH1       18.4790   29.4200   59.3310 N.pl3  22  ARG22       0.1354
     43  NH2       19.7850   31.0420   58.3470 N.pl3  22  ARG22       0.1354
     44  N         13.6620   27.8800   58.7680 N.3    24  ALA24      -0.1231
     45  CA        14.2220   27.6000   60.0920 C.3    24  ALA24       0.1694
     46  C         13.1780   27.4020   61.1810 C.2    24  ALA24       0.2592
     47  O         12.2850   28.2300   61.3780 O.2    24  ALA24      -0.2718
     48  CB        15.1910   28.7190   60.5130 C.3    24  ALA24       0.0304
     49  N         13.3010   26.2760   61.8700 N.am   25  LYS25      -0.1966
     50  CA        12.4110   25.9320   62.9660 C.3    25  LYS25       0.1728
     51  C         12.9550   26.6330   64.2120 C.2    25  LYS25       0.2616
     52  O         14.0400   26.3310   64.7020 O.2    25  LYS25      -0.2715
     53  CB        12.3820   24.4140   63.1570 C.3    25  LYS25       0.0311
     54  CG        12.0630   23.6280   61.9100 C.3    25  LYS25       0.0038
     55  CD        12.0310   22.1100   62.1240 C.3    25  LYS25       0.0206
     56  CE        10.8490   21.6650   62.9760 C.3    25  LYS25       0.1093
     57  NZ        11.0120   22.0220   64.4030 N.3    25  LYS25      -0.1314
     58  N         12.1940   27.6010   64.6970 N.am   26  LEU26      -0.1963
     59  CA        12.5950   28.3860   65.8570 C.3    26  LEU26       0.1728
     60  C         11.7920   28.0790   67.1090 C.2    26  LEU26       0.2616
     61  O         10.5710   27.9350   67.0650 O.2    26  LEU26      -0.2715
     62  CB        12.4940   29.8780   65.5150 C.3    26  LEU26       0.0311
     63  CG        13.5810   30.3210   64.5280 C.3    26  LEU26       0.0022
     64  CD1       13.2130   31.6210   63.8710 C.3    26  LEU26       0.0001
     65  CD2       14.8870   30.4610   65.2740 C.3    26  LEU26       0.0001
     66  N         12.5030   27.9700   68.2270 N.am   27  ALA27      -0.1963
     67  CA        11.8890   27.6940   69.5190 C.3    27  ALA27       0.1728
     68  C         11.6010   29.0060   70.2590 C.2    27  ALA27       0.2616
     69  O         12.5170   29.7470   70.6190 O.2    27  ALA27      -0.2715
     70  CB        12.8120   26.8160   70.3500 C.3    27  ALA27       0.0334
     71  N         10.3210   29.2950   70.4690 N.am   28  LEU28      -0.1963
     72  CA         9.9090   30.5070   71.1810 C.3    28  LEU28       0.1728
     73  C          9.5630   30.2180   72.6400 C.2    28  LEU28       0.2616
     74  O          8.6870   29.4050   72.9270 O.2    28  LEU28      -0.2715
     75  CB         8.6940   31.1600   70.4940 C.3    28  LEU28       0.0311
     76  CG         8.0570   32.3310   71.2740 C.3    28  LEU28       0.0022
     77  CD1        9.0870   33.4320   71.4670 C.3    28  LEU28       0.0001
     78  CD2        6.8370   32.8770   70.5420 C.3    28  LEU28       0.0001
     79  N         10.2660   30.8810   73.5510 N.am   29  ASN29      -0.1958
     80  CA        10.0070   30.7230   74.9750 C.3    29  ASN29       0.1819
     81  C          9.3740   32.0280   75.4730 C.2    29  ASN29       0.2621
     82  O         10.0130   33.0890   75.4600 O.2    29  ASN29      -0.2715
     83  CB        11.3090   30.4140   75.7280 C.3    29  ASN29       0.1195
     84  CG        12.0950   29.3030   75.0830 C.2    29  ASN29       0.2630
     85  OD1       12.7330   29.5050   74.0460 O.2    29  ASN29      -0.2716
     86  ND2       12.0520   28.1190   75.6800 N.am   29  ASN29      -0.0877
     87  N          8.1150   31.9560   75.8950 N.am   30  LYS30      -0.1977
     88  CA         7.4390   33.1560   76.3420 C.3    30  LYS30       0.1596
     89  C          6.4630   32.9510   77.4780 C.2    30  LYS30       0.2287
     90  O          6.0580   31.8310   77.7920 O.2    30  LYS30      -0.2864
     91  CB         6.6880   33.7870   75.1800 C.3    30  LYS30       0.0298
     92  CG         5.6600   32.8750   74.5830 C.3    30  LYS30       0.0038
     93  CD         4.7710   33.6140   73.6120 C.3    30  LYS30       0.0206
     94  CE         3.8040   32.6510   72.9450 C.3    30  LYS30       0.1093
     95  NZ         2.8770   33.3330   71.9970 N.3    30  LYS30      -0.1314
     96  N          6.6660   26.7860   75.4870 N.3   104  ARG104     -0.1245
     97  CA         7.6910   26.5910   74.4730 C.3   104  ARG104      0.1563
     98  C          7.0330   26.0810   73.1960 C.2   104  ARG104      0.2260
     99  O          6.7020   24.8960   73.1010 O.2   104  ARG104     -0.2867
    100  CB         8.7060   25.5590   74.9460 C.3   104  ARG104      0.0307
    101  CG        10.1390   25.8860   74.5970 C.3   104  ARG104      0.0489
    102  CD        10.9540   24.6120   74.5160 C.3   104  ARG104      0.2205
    103  NE        10.6460   23.9060   73.2770 N.pl3 104  ARG104     -0.0865
    104  CZ        11.1030   22.6970   72.9580 C.cat 104  ARG104      0.5346
    105  NH1       11.8960   22.0260   73.7960 N.pl3 104  ARG104      0.1354
    106  NH2       10.7890   22.1720   71.7770 N.pl3 104  ARG104      0.1354
    107  N          6.9920   26.0320   68.7240 N.3   106  ILE106     -0.1231
    108  CA         7.8940   26.1180   67.5840 C.3   106  ILE106      0.1692
    109  C          7.2620   26.8490   66.4120 C.2   106  ILE106      0.2591
    110  O          6.1090   26.6020   66.0530 O.2   106  ILE106     -0.2718
    111  CB         8.3430   24.7090   67.1310 C.3   106  ILE106      0.0266
    112  CG1        9.3240   24.1440   68.1550 C.3   106  ILE106      0.0019
    113  CG2        8.9670   24.7630   65.7400 C.3   106  ILE106      0.0020
    114  CD1        9.8510   22.7770   67.8110 C.3   106  ILE106      0.0001
    115  N          8.0230   27.7690   65.8310 N.am  107  LEU107     -0.1980
    116  CA         7.5570   28.5290   64.6850 C.3   107  LEU107      0.1596
    117  C          8.5000   28.2240   63.5380 C.2   107  LEU107      0.2287
    118  O          9.7010   28.0510   63.7440 O.2   107  LEU107     -0.2864
    119  CB         7.5850   30.0300   64.9810 C.3   107  LEU107      0.0297
    120  CG         6.7070   30.6210   66.0910 C.3   107  LEU107      0.0022
    121  CD1        6.7910   32.1550   66.0450 C.3   107  LEU107      0.0001
    122  CD2        5.2680   30.1670   65.9050 C.3   107  LEU107      0.0001
    123  N          4.8720   37.9980   74.2780 N.3   128  ASP128     -0.1239
    124  CA         4.4600   37.6950   75.6340 C.3   128  ASP128      0.1674
    125  C          3.0930   38.2630   75.9300 C.2   128  ASP128      0.2266
    126  O          2.6590   39.2310   75.3080 O.2   128  ASP128     -0.2867
    127  CB         5.4690   38.2650   76.6160 C.3   128  ASP128      0.1410
    128  CG         6.8740   37.8120   76.3210 C.2   128  ASP128      0.3668
    129  OD1        7.1910   36.6430   76.6390 O.co2 128  ASP128     -0.2456
    130  OD2        7.6470   38.6260   75.7600 O.co2 128  ASP128     -0.2456
    131  N          6.0910   38.9980   67.2580 N.3   138  VAL138     -0.1245
    132  CA         7.4110   38.4140   67.2500 C.3   138  VAL138      0.1561
    133  C          7.8850   38.8120   65.8740 C.2   138  VAL138      0.2260
    134  O          7.3400   38.3800   64.8640 O.2   138  VAL138     -0.2867
    135  CB         7.3880   36.8830   67.3800 C.3   138  VAL138      0.0252
    136  CG1        8.8180   36.3330   67.2680 C.3   138  VAL138      0.0019
    137  CG2        6.7960   36.4900   68.7410 C.3   138  VAL138      0.0019
    138  N         10.9500   39.0060   63.2030 N.3   140  PHE140     -0.1241
    139  CA        12.2390   38.4910   62.8230 C.3   140  PHE140      0.1605
    140  C         12.7890   39.4700   61.8250 C.2   140  PHE140      0.2264
    141  O         12.0420   40.0080   61.0200 O.2   140  PHE140     -0.2867
    142  CB        12.1100   37.1150   62.1840 C.3   140  PHE140      0.0534
    143  CG        11.4760   36.0990   63.0740 C.ar  140  PHE140     -0.0203
    144  CD1       10.0990   35.9810   63.1370 C.ar  140  PHE140     -0.0042
    145  CD2       12.2580   35.2500   63.8450 C.ar  140  PHE140     -0.0042
    146  CE1        9.5120   35.0260   63.9520 C.ar  140  PHE140     -0.0003
    147  CE2       11.6720   34.2890   64.6660 C.ar  140  PHE140     -0.0003
    148  CZ        10.3080   34.1740   64.7190 C.ar  140  PHE140     -0.0000
@<TRIPOS>BOND
     1    33    34    1
     2    34    37    1
     3    34    35    1
     4    37    38    1
     5    35    36    2
     6    38    39    1
     7    39    40    1
     8    40    41    2
     9    41    43    1
    10    41    42    1
    11    44    45    1
    12    29    30    2
    13    29    28    1
    14    22    21    2
    15    28    31    1
    16    28    27    1
    17    45    48    1
    18    45    46    1
    19    25    23    1
    20    21    27   am
    21    21    20    1
    22    31    32    1
    23    23    20    1
    24    23    24    1
    25   141   140    2
    26    46    47    2
    27    46    49   am
    28    26    24    1
    29    20    19    1
    30   140   139    1
    31    49    50    1
    32    54    55    1
    33    54    53    1
    34    55    56    1
    35   142   139    1
    36   142   143    1
    37   139   138    1
    38    50    53    1
    39    50    51    1
    40    56    57    1
    41   143   144   ar
    42   143   145   ar
    43   144   146   ar
    44   117   118    2
    45   117   116    1
    46   145   147   ar
    47    64    63    1
    48   146   148   ar
    49    51    58   am
    50    51    52    2
    51    12    11    2
    52    63    65    1
    53    63    62    1
    54   147   148   ar
    55   116   119    1
    56   116   115    1
    57    58    59    1
    58   134   133    2
    59   119   120    1
    60    11    10    1
    61    62    59    1
    62   113   111    1
    63   115   109   am
    64    59    60    1
    65   133   132    1
    66   122   120    1
    67   121   120    1
    68   110   109    2
    69    16    18   ar
    70    16    14   ar
    71   109   108    1
    72    18    17   ar
    73    10     9    1
    74    10    13    1
    75    13    14    1
    76    61    60    2
    77    14    15   ar
    78    60    66   am
    79   111   108    1
    80   111   112    1
    81   132   131    1
    82   132   135    1
    83   136   135    1
    84   135   137    1
    85   108   107    1
    86   114   112    1
    87    17    15   ar
    88    66    67    1
    89     4     3    2
    90     3     2    1
    91    67    68    1
    92    67    70    1
    93    68    71   am
    94    68    69    2
    95     1     2    1
    96    71    72    1
    97    75    72    1
    98    75    76    1
    99    78    76    1
   100     2     5    1
   101     7     5    1
   102     5     6    1
   103    72    73    1
   104    76    77    1
   105   106   104    1
   106    95    94    1
   107     6     8    1
   108    73    74    2
   109    73    79   am
   110    94    93    1
   111   104   103    2
   112   104   105    1
   113    99    98    2
   114    98    97    1
   115   103   102    1
   116    79    80    1
   117    93    92    1
   118    85    84    2
   119   123   124    1
   120    97   100    1
   121    97    96    1
   122   102   101    1
   123    92    91    1
   124   101   100    1
   125    80    81    1
   126    80    83    1
   127    84    86   am
   128    84    83    1
   129    91    88    1
   130   126   125    2
   131    82    81    2
   132    81    87   am
   133   124   125    1
   134   124   127    1
   135   130   128   ar
   136    87    88    1
   137   128   127    1
   138   128   129   ar
   139    88    89    1
   140    89    90    2
