@<TRIPOS>MOLECULE
tmp/1nluA01.pdb
 148 140 0 0 0
SMALL
GASTEIGER

@<TRIPOS>ATOM
      1  N         14.5010   17.4590   13.3600 N.3    74  GLN74      -0.1245
      2  CA        15.7110   16.7570   13.8510 C.3    74  GLN74       0.1566
      3  C         16.9830   17.5220   13.5310 C.2    74  GLN74       0.2260
      4  O         17.9540   17.5240   14.3290 O.2    74  GLN74      -0.2867
      5  CB        15.8260   15.3290   13.2690 C.3    74  GLN74       0.0367
      6  CG        14.4760   14.6760   13.0200 C.3    74  GLN74       0.0905
      7  CD        14.4110   13.2550   13.5450 C.2    74  GLN74       0.2608
      8  OE1       15.3950   12.5170   13.4950 O.2    74  GLN74      -0.2717
      9  NE2       13.2480   12.8650   14.0520 N.am   74  GLN74      -0.0878
     10  N         18.6010   19.9790   16.1590 N.3    77  GLY77      -0.1210
     11  CA        19.5240   19.5030   17.1770 C.3    77  GLY77       0.1956
     12  C         20.9530   19.5280   16.6870 C.2    77  GLY77       0.2611
     13  O         21.8630   19.8680   17.4410 O.2    77  GLY77      -0.2717
     14  N         21.1960   19.1530   15.4330 N.am   78  GLU78      -0.1979
     15  CA        22.5280   19.2480   14.8470 C.3    78  GLU78       0.1602
     16  C         22.9790   20.7070   14.7320 C.2    78  GLU78       0.2287
     17  O         24.1140   20.9800   15.1390 O.2    78  GLU78      -0.2864
     18  CB        22.4930   18.5920   13.4630 C.3    78  GLU78       0.0415
     19  CG        23.8930   18.6130   12.7940 C.3    78  GLU78       0.1163
     20  CD        24.8710   17.7340   13.5350 C.2    78  GLU78       0.3649
     21  OE1       24.8330   16.4930   13.3380 O.co2  78  GLU78      -0.2457
     22  OE2       25.7540   18.2060   14.2910 O.co2  78  GLU78      -0.2457
     23  N         23.7990   21.9740   18.2230 N.3    81  LEU81      -0.1245
     24  CA        25.0830   21.4350   18.6930 C.3    81  LEU81       0.1561
     25  C         26.2320   22.1740   18.0130 C.2    81  LEU81       0.2260
     26  O         27.2310   22.5460   18.6630 O.2    81  LEU81      -0.2867
     27  CB        25.1060   19.9500   18.3510 C.3    81  LEU81       0.0270
     28  CG        26.3940   19.1690   18.6580 C.3    81  LEU81       0.0019
     29  CD1       26.7150   19.1940   20.1580 C.3    81  LEU81       0.0001
     30  CD2       26.2420   17.7470   18.1230 C.3    81  LEU81       0.0001
     31  N         29.7610    8.2310   13.2920 N.3   168  ASP168     -0.1239
     32  CA        29.2670    7.8070   14.5980 C.3   168  ASP168      0.1674
     33  C         29.0680    6.2970   14.6640 C.2   168  ASP168      0.2266
     34  O         28.4350    5.8140   15.6150 O.2   168  ASP168     -0.2867
     35  CB        27.9170    8.5090   14.9000 C.3   168  ASP168      0.1410
     36  CG        28.0730    9.9910   15.2180 C.2   168  ASP168      0.3668
     37  OD1       27.0150   10.6520   15.3890 O.co2 168  ASP168     -0.2456
     38  OD2       29.2090   10.4980   15.3110 O.co2 168  ASP168     -0.2456
     39  N         36.1100    7.2820   21.8050 N.3   218  TRP218     -0.1241
     40  CA        34.6630    7.2430   21.9240 C.3   218  TRP218      0.1605
     41  C         34.1690    5.8940   21.4280 C.2   218  TRP218      0.2264
     42  O         34.2060    5.6140   20.2110 O.2   218  TRP218     -0.2867
     43  CB        33.9910    8.3960   21.1280 C.3   218  TRP218      0.0550
     44  CG        32.4850    8.2200   21.1180 C.ar  218  TRP218      0.0003
     45  CD1       31.6580    7.8030   22.1780 C.ar  218  TRP218      0.0946
     46  CD2       31.6180    8.4590   20.0120 C.ar  218  TRP218      0.0152
     47  NE1       30.3420    7.7660   21.7410 N.ar  218  TRP218     -0.2442
     48  CE2       30.2950    8.1690   20.4250 C.ar  218  TRP218      0.0810
     49  CE3       31.8610    8.8860   18.6880 C.ar  218  TRP218      0.0012
     50  CZ2       29.1990    8.3040   19.5630 C.ar  218  TRP218      0.0191
     51  CZ3       30.7960    9.0160   17.8400 C.ar  218  TRP218      0.0001
     52  CH2       29.4590    8.7260   18.2670 C.ar  218  TRP218      0.0015
     53  N         30.5580    3.8800   22.7400 N.3   220  GLU220     -0.1245
     54  CA        29.5280    3.6470   23.7450 C.3   220  GLU220      0.1567
     55  C         28.7070    2.3970   23.4700 C.2   220  GLU220      0.2260
     56  O         27.6640    2.1700   24.0760 O.2   220  GLU220     -0.2867
     57  CB        28.6280    4.9060   23.8710 C.3   220  GLU220      0.0388
     58  CG        29.3520    5.9140   24.7730 C.3   220  GLU220      0.1160
     59  CD        28.7250    7.2870   24.8200 C.2   220  GLU220      0.3649
     60  OE1       28.5660    7.7950   25.9630 O.co2 220  GLU220     -0.2457
     61  OE2       28.4030    7.8560   23.7540 O.co2 220  GLU220     -0.2457
     62  N         26.3890   -0.6190   21.7510 N.3   222  LEU222     -0.1231
     63  CA        25.2020   -0.6900   20.9040 C.3   222  LEU222      0.1693
     64  C         23.9850   -0.0080   21.5230 C.2   222  LEU222      0.2592
     65  O         23.8280   -0.1000   22.7660 O.2   222  LEU222     -0.2718
     66  CB        24.7910   -2.1470   20.6150 C.3   222  LEU222      0.0284
     67  CG        25.8850   -3.0670   20.0580 C.3   222  LEU222      0.0019
     68  CD1       25.3330   -4.4670   19.7840 C.3   222  LEU222      0.0001
     69  CD2       26.5210   -2.4130   18.8240 C.3   222  LEU222      0.0001
     70  N         23.1330    0.6210   20.7000 N.am  223  ASP223     -0.1974
     71  CA        21.8780    1.1430   21.2550 C.3   223  ASP223      0.1709
     72  C         20.8060    0.0760   21.2490 C.2   223  ASP223      0.2293
     73  O         21.1410   -1.0640   20.9130 O.2   223  ASP223     -0.2864
     74  CB        21.4820    2.4110   20.4850 C.3   223  ASP223      0.1436
     75  CG        21.1500    2.1320   19.0220 C.2   223  ASP223      0.3671
     76  OD1       21.0840    3.1560   18.2990 O.co2 223  ASP223     -0.2456
     77  OD2       20.9390    0.9540   18.6200 O.co2 223  ASP223     -0.2456
     78  N         27.6260    2.9460   18.3980 N.3   229  TRP229     -0.1241
     79  CA        27.9220    4.3820   18.5420 C.3   229  TRP229      0.1605
     80  C         29.3780    4.5220   18.9200 C.2   229  TRP229      0.2264
     81  O         29.7560    4.2260   20.0800 O.2   229  TRP229     -0.2867
     82  CB        27.0100    4.9740   19.6220 C.3   229  TRP229      0.0550
     83  CG        25.6160    5.1090   19.0690 C.ar  229  TRP229      0.0003
     84  CD1       24.5850    4.2220   19.1960 C.ar  229  TRP229      0.0946
     85  CD2       25.0930    6.2010   18.2920 C.ar  229  TRP229      0.0152
     86  NE1       23.4500    4.6850   18.5500 N.ar  229  TRP229     -0.2442
     87  CE2       23.7540    5.9190   17.9810 C.ar  229  TRP229      0.0810
     88  CE3       25.6160    7.4050   17.8110 C.ar  229  TRP229      0.0012
     89  CZ2       22.9370    6.7700   17.2310 C.ar  229  TRP229      0.0191
     90  CZ3       24.8020    8.2380   17.0720 C.ar  229  TRP229      0.0001
     91  CH2       23.4760    7.9400   16.7740 C.ar  229  TRP229      0.0015
     92  N         28.4580   10.6590   24.2990 N.3   266  GLN266     -0.1245
     93  CA        27.2760   11.3470   24.8980 C.3   266  GLN266      0.1566
     94  C         27.5030   11.4250   26.3990 C.2   266  GLN266      0.2260
     95  O         27.0570   12.4250   26.9820 O.2   266  GLN266     -0.2867
     96  CB        26.0060   10.5820   24.5400 C.3   266  GLN266      0.0367
     97  CG        24.7170   11.2740   24.9880 C.3   266  GLN266      0.0905
     98  CD        24.2920   11.0380   26.4250 C.2   266  GLN266      0.2608
     99  OE1       24.7620   10.0520   27.0140 O.2   266  GLN266     -0.2717
    100  NE2       23.5300   11.9860   26.9980 N.am  266  GLN266     -0.0878
    101  N         18.0970   22.9480   22.7720 N.3   274  ASN274     -0.1240
    102  CA        17.4220   22.4160   21.5890 C.3   274  ASN274      0.1653
    103  C         15.9160   22.6080   21.7710 C.2   274  ASN274      0.2266
    104  O         15.3490   22.0060   22.7120 O.2   274  ASN274     -0.2867
    105  CB        17.8150   20.9420   21.4690 C.3   274  ASN274      0.1155
    106  CG        17.0030   20.1850   20.4560 C.2   274  ASN274      0.2627
    107  OD1       16.3660   19.1860   20.8020 O.2   274  ASN274     -0.2716
    108  ND2       17.0240   20.6560   19.2280 N.am  274  ASN274     -0.0877
    109  N         19.8500   19.6300   26.5960 N.3   279  GLN279     -0.1231
    110  CA        20.0780   18.1910   26.4220 C.3   279  GLN279      0.1698
    111  C         21.5520   17.8700   26.3560 C.2   279  GLN279      0.2592
    112  O         22.3260   18.6920   25.8440 O.2   279  GLN279     -0.2718
    113  CB        19.4380   17.7010   25.1150 C.3   279  GLN279      0.0381
    114  CG        17.9620   18.1080   25.1570 C.3   279  GLN279      0.0905
    115  CD        17.2740   17.6190   23.9040 C.2   279  GLN279      0.2608
    116  OE1       17.9340   17.1040   23.0010 O.2   279  GLN279     -0.2717
    117  NE2       15.9650   17.8060   23.8850 N.am  279  GLN279     -0.0878
    118  N         21.9310   16.6830   26.8160 N.am  280  GLN280     -0.1966
    119  CA        23.3400   16.2840   26.7840 C.3   280  GLN280      0.1733
    120  C         23.5370   15.4200   25.5500 C.2   280  GLN280      0.2616
    121  O         22.9100   14.3500   25.4100 O.2   280  GLN280     -0.2715
    122  CB        23.6390   15.5940   28.1020 C.3   280  GLN280      0.0408
    123  CG        25.1070   15.1630   28.1720 C.3   280  GLN280      0.0908
    124  CD        25.4460   14.5590   29.5440 C.2   280  GLN280      0.2608
    125  OE1       25.0340   15.1380   30.5690 O.2   280  GLN280     -0.2717
    126  NE2       26.2030   13.4460   29.5630 N.am  280  GLN280     -0.0878
    127  N         24.3730   15.9420   24.6340 N.am  281  ILE281     -0.1963
    128  CA        24.5150   15.3820   23.2880 C.3   281  ILE281      0.1727
    129  C         25.9470   15.0630   22.9470 C.2   281  ILE281      0.2617
    130  O         26.8130   15.8410   23.3430 O.2   281  ILE281     -0.2715
    131  CB        24.0360   16.4800   22.2780 C.3   281  ILE281      0.0290
    132  CG1       22.6100   16.9440   22.5620 C.3   281  ILE281      0.0022
    133  CG2       24.2130   16.0030   20.8520 C.3   281  ILE281      0.0023
    134  CD1       22.1440   17.9500   21.4930 C.3   281  ILE281      0.0001
    135  N         26.1760   13.9630   22.2520 N.am  282  GLY282     -0.1940
    136  CA        27.5140   13.6660   21.7700 C.3   282  GLY282      0.2014
    137  C         27.4660   13.3570   20.2790 C.2   282  GLY282      0.2639
    138  O         26.5400   13.7290   19.5540 O.2   282  GLY282     -0.2714
    139  N         28.4760   12.6120   19.8480 N.am  283  GLY283     -0.1954
    140  CA        28.7050   12.3400   18.4450 C.3   283  GLY283      0.1869
    141  C         29.9670   12.9990   17.9790 C.2   283  GLY283      0.2309
    142  O         30.4820   13.9890   18.5320 O.2   283  GLY283     -0.2863
    143  N         29.6650   14.7200   15.6000 N.3   285  SER285     -0.1217
    144  CA        29.0010   16.0050   15.3420 C.3   285  SER285      0.1889
    145  C         29.3320   17.0730   16.3800 C.2   285  SER285      0.2288
    146  O         29.1500   18.2480   16.0740 O.2   285  SER285     -0.2866
    147  CB        27.4830   15.8330   15.3990 C.3   285  SER285      0.2089
    148  OG        27.0370   15.1070   14.2480 O.3   285  SER285     -0.2183
@<TRIPOS>BOND
     1    19    18    1
     2    19    20    1
     3     6     5    1
     4     6     7    1
     5     5     2    1
     6    31    32    1
     7    21    20   ar
     8     1     2    1
     9    18    15    1
    10     8     7    2
    11     3     2    1
    12     3     4    2
    13    20    22   ar
    14     7     9   am
    15   148   147    1
    16    32    33    1
    17    32    35    1
    18    33    34    2
    19    16    15    1
    20    16    17    2
    21    15    14    1
    22    35    36    1
    23    36    38   ar
    24    36    37   ar
    25   144   147    1
    26   144   143    1
    27   144   145    1
    28    14    12   am
    29   146   145    2
    30    10    11    1
    31    12    11    1
    32    12    13    2
    33    91    90   ar
    34    91    89   ar
    35    90    88   ar
    36    89    87   ar
    37    88    85   ar
    38    51    52   ar
    39    51    49   ar
    40   141   140    1
    41   141   142    2
    42    87    85   ar
    43    87    86   ar
    44    25    26    2
    45    25    24    1
    46    30    28    1
    47    23    24    1
    48    52    50   ar
    49    85    83   ar
    50    76    75   ar
    51    27    28    1
    52    27    24    1
    53    78    79    1
    54   140   139    1
    55    79    80    1
    56    79    82    1
    57    86    84   ar
    58    77    75   ar
    59    28    29    1
    60    49    46   ar
    61    69    67    1
    62    80    81    2
    63    75    74    1
    64    83    84   ar
    65    83    82    1
    66   108   106   am
    67   138   137    2
    68    50    48   ar
    69    68    67    1
    70   139   137   am
    71    46    48   ar
    72    46    44   ar
    73    67    66    1
    74    42    41    2
    75   137   136    1
    76    48    47   ar
    77   106   107    2
    78   106   105    1
    79    74    71    1
    80    66    63    1
    81    70    71    1
    82    70    64   am
    83   133   131    1
    84    63    64    1
    85    63    62    1
    86    73    72    2
    87    44    43    1
    88    44    45   ar
    89    43    40    1
    90    72    71    1
    91    41    40    1
    92   105   102    1
    93   134   132    1
    94    64    65    2
    95   102   103    1
    96   102   101    1
    97    47    45   ar
    98   136   135    1
    99   103   104    2
   100    39    40    1
   101   135   129   am
   102   131   132    1
   103   131   128    1
   104    53    54    1
   105   129   128    1
   106   129   130    2
   107   116   115    2
   108   128   127    1
   109    55    54    1
   110    55    56    2
   111    54    57    1
   112    61    59   ar
   113    57    58    1
   114   117   115   am
   115   115   114    1
   116    92    93    1
   117    96    93    1
   118    96    97    1
   119   127   120   am
   120    58    59    1
   121    59    60   ar
   122    93    94    1
   123    97    98    1
   124   113   114    1
   125   113   110    1
   126   121   120    2
   127   120   119    1
   128   112   111    2
   129   111   110    1
   130   111   118   am
   131    94    95    2
   132   110   109    1
   133    98   100   am
   134    98    99    2
   135   119   118    1
   136   119   122    1
   137   122   123    1
   138   123   124    1
   139   124   126   am
   140   124   125    2
