@<TRIPOS>MOLECULE
tmp/1nlyB01.pdb
 99 96 0 0 0
SMALL
GASTEIGER

@<TRIPOS>ATOM
      1  N        -21.9600   18.1090   39.4140 N.3    33  ASP33      -0.1225
      2  CA       -22.5280   17.2800   38.3510 C.3    33  ASP33       0.1805
      3  C        -22.1680   17.7330   36.9560 C.2    33  ASP33       0.2597
      4  O        -21.7660   16.9360   36.1210 O.2    33  ASP33      -0.2718
      5  CB       -24.0560   17.2360   38.4490 C.3    33  ASP33       0.1424
      6  CG       -24.5510   16.2970   39.5370 C.2    33  ASP33       0.3668
      7  OD1      -23.7470   15.4690   40.0150 O.co2  33  ASP33      -0.2456
      8  OD2      -25.7480   16.3690   39.9000 O.co2  33  ASP33      -0.2456
      9  N        -22.3360   19.0200   36.7100 N.am   34  PHE34      -0.1976
     10  CA       -22.0700   19.5960   35.4070 C.3    34  PHE34       0.1639
     11  C        -20.6200   19.5330   35.0060 C.2    34  PHE34       0.2290
     12  O        -20.2970   19.2700   33.8550 O.2    34  PHE34      -0.2864
     13  CB       -22.5510   21.0370   35.3940 C.3    34  PHE34       0.0560
     14  CG       -23.9210   21.1940   35.9440 C.ar   34  PHE34      -0.0200
     15  CD1      -24.1060   21.7960   37.1770 C.ar   34  PHE34      -0.0042
     16  CD2      -25.0290   20.6950   35.2490 C.ar   34  PHE34      -0.0042
     17  CE1      -25.3710   21.9040   37.7260 C.ar   34  PHE34      -0.0003
     18  CE2      -26.3060   20.7950   35.7880 C.ar   34  PHE34      -0.0003
     19  CZ       -26.4770   21.4020   37.0330 C.ar   34  PHE34      -0.0000
     20  N        -18.6320   17.3320   35.6370 N.3    36  LYS36      -0.1245
     21  CA       -18.3410   15.9510   35.2290 C.3    36  LYS36       0.1561
     22  C        -18.7460   15.6430   33.7730 C.2    36  LYS36       0.2260
     23  O        -18.2620   14.7020   33.1550 O.2    36  LYS36      -0.2867
     24  CB       -19.0620   14.9740   36.1600 C.3    36  LYS36       0.0271
     25  CG       -18.6750   15.0650   37.6300 C.3    36  LYS36       0.0035
     26  CD       -19.2210   13.8530   38.3970 C.3    36  LYS36       0.0206
     27  CE       -18.8700   13.8660   39.8900 C.3    36  LYS36       0.1093
     28  NZ       -19.2420   12.5730   40.5540 N.3    36  LYS36      -0.1314
     29  N        -18.9610   15.4040   29.9050 N.3    37  GLU37      -0.1245
     30  CA       -17.9710   15.3610   28.8380 C.3    37  GLU37       0.1567
     31  C        -18.3380   16.3500   27.7320 C.2    37  GLU37       0.2260
     32  O        -19.4980   16.6970   27.5750 O.2    37  GLU37      -0.2867
     33  CB       -17.9240   13.9630   28.2140 C.3    37  GLU37       0.0388
     34  CG       -16.9420   12.9490   28.7840 C.3    37  GLU37       0.1160
     35  CD       -16.7870   11.7300   27.8390 C.2    37  GLU37       0.3649
     36  OE1      -16.3110   11.8880   26.6830 O.co2  37  GLU37      -0.2457
     37  OE2      -17.1530   10.6060   28.2440 O.co2  37  GLU37      -0.2457
     38  N        -32.2210   27.5260   36.8080 N.3    49  VAL49      -0.1245
     39  CA       -31.9180   26.6240   35.7050 C.3    49  VAL49       0.1561
     40  C        -30.4610   26.7470   35.3340 C.2    49  VAL49       0.2260
     41  O        -29.9470   27.8620   35.2380 O.2    49  VAL49      -0.2867
     42  CB       -32.7730   26.9440   34.4550 C.3    49  VAL49       0.0252
     43  CG1      -32.3080   26.1160   33.2570 C.3    49  VAL49       0.0019
     44  CG2      -34.2270   26.6510   34.7530 C.3    49  VAL49       0.0019
     45  N        -30.4270   23.0960   28.9770 N.3    61  PRO61      -0.2102
     46  CA       -30.9520   23.5900   30.2610 C.3    61  PRO61       0.1504
     47  C        -31.1970   22.4180   31.2190 C.2    61  PRO61       0.2576
     48  O        -31.4320   21.2640   30.8110 O.2    61  PRO61      -0.2718
     49  CB       -32.1570   24.3560   29.8220 C.3    61  PRO61       0.0282
     50  CG       -32.6550   23.4920   28.7030 C.3    61  PRO61       0.0208
     51  CD       -31.4600   23.0920   27.9460 C.3    61  PRO61       0.0893
     52  N        -30.9120   22.6580   32.4920 N.am   62  PHE62      -0.1963
     53  CA       -31.0710   21.6310   33.5220 C.3    62  PHE62       0.1771
     54  C        -31.7870   22.2910   34.6630 C.2    62  PHE62       0.2620
     55  O        -31.4210   23.3810   35.0880 O.2    62  PHE62      -0.2715
     56  CB       -29.7000   21.1170   34.0040 C.3    62  PHE62       0.0574
     57  CG       -29.0100   20.1770   33.0390 C.ar   62  PHE62      -0.0200
     58  CD1      -28.1900   20.6690   32.0420 C.ar   62  PHE62      -0.0042
     59  CD2      -29.1900   18.7940   33.1280 C.ar   62  PHE62      -0.0042
     60  CE1      -27.5640   19.8050   31.1550 C.ar   62  PHE62      -0.0003
     61  CE2      -28.5680   17.9360   32.2460 C.ar   62  PHE62      -0.0003
     62  CZ       -27.7570   18.4410   31.2610 C.ar   62  PHE62      -0.0000
     63  N        -32.8200   21.6250   35.1450 N.am   63  ASP63      -0.1957
     64  CA       -33.6180   22.1490   36.2380 C.3    63  ASP63       0.1840
     65  C        -32.9890   21.8740   37.6170 C.2    63  ASP63       0.2622
     66  O        -32.5630   20.7530   37.8800 O.2    63  ASP63      -0.2715
     67  CB       -34.9990   21.5190   36.1820 C.3    63  ASP63       0.1450
     68  CG       -35.9830   22.2670   37.0060 C.2    63  ASP63       0.3671
     69  OD1      -35.5270   22.9120   37.9730 O.co2  63  ASP63      -0.2456
     70  OD2      -37.1890   22.2100   36.6860 O.co2  63  ASP63      -0.2456
     71  N        -32.9310   22.8860   38.4890 N.am   64  VAL64      -0.1963
     72  CA       -32.3730   22.7380   39.8480 C.3    64  VAL64       0.1727
     73  C        -33.2720   23.4060   40.8820 C.2    64  VAL64       0.2616
     74  O        -32.8420   23.7790   41.9770 O.2    64  VAL64      -0.2715
     75  CB       -30.9560   23.3550   39.9850 C.3    64  VAL64       0.0290
     76  CG1      -29.9520   22.5160   39.2420 C.3    64  VAL64       0.0023
     77  CG2      -30.9480   24.7890   39.4800 C.3    64  VAL64       0.0023
     78  N        -34.5300   23.5540   40.5040 N.am   65  ARG65      -0.1977
     79  CA       -35.5410   24.1590   41.3500 C.3    65  ARG65       0.1597
     80  C        -35.5180   23.5430   42.7480 C.2    65  ARG65       0.2287
     81  O        -35.6820   24.2380   43.7580 O.2    65  ARG65      -0.2864
     82  CB       -36.9150   23.9200   40.7320 C.3    65  ARG65       0.0334
     83  CG       -37.8060   25.1290   40.6700 C.3    65  ARG65       0.0492
     84  CD       -39.1660   24.7240   40.1000 C.3    65  ARG65       0.2205
     85  NE       -39.0330   23.8690   38.9150 N.pl3  65  ARG65      -0.0865
     86  CZ       -40.0080   23.6360   38.0360 C.cat  65  ARG65       0.5346
     87  NH1      -41.1960   24.1990   38.2150 N.pl3  65  ARG65       0.1354
     88  NH2      -39.7940   22.8630   36.9670 N.pl3  65  ARG65       0.1354
     89  N        -33.0510   21.9680   44.7440 N.3    67  ARG67      -0.1245
     90  CA       -31.6880   21.6550   45.1520 C.3    67  ARG67       0.1563
     91  C        -31.3070   22.7210   46.1450 C.2    67  ARG67       0.2260
     92  O        -31.5860   23.8980   45.9130 O.2    67  ARG67      -0.2867
     93  CB       -30.7150   21.7330   43.9780 C.3    67  ARG67       0.0307
     94  CG       -30.7610   20.5770   43.0020 C.3    67  ARG67       0.0489
     95  CD       -29.3370   20.1850   42.6010 C.3    67  ARG67       0.2205
     96  NE       -29.2820   19.2830   41.4520 N.pl3  67  ARG67      -0.0865
     97  CZ       -28.1510   18.8650   40.8930 C.cat  67  ARG67       0.5346
     98  NH1      -26.9890   19.2640   41.3930 N.pl3  67  ARG67       0.1354
     99  NH2      -28.1800   18.0880   39.8160 N.pl3  67  ARG67       0.1354
@<TRIPOS>BOND
     1    36    35   ar
     2    32    31    2
     3    31    30    1
     4    35    37   ar
     5    35    34    1
     6    51    50    1
     7    51    45    1
     8    33    34    1
     9    33    30    1
    10    50    49    1
    11    30    29    1
    12    45    46    1
    13    49    46    1
    14    46    47    1
    15    48    47    2
    16    60    62   ar
    17    60    58   ar
    18    47    52   am
    19    62    61   ar
    20    58    57   ar
    21    61    59   ar
    22    52    53    1
    23    57    59   ar
    24    57    56    1
    25    23    22    2
    26    43    42    1
    27    53    56    1
    28    53    54    1
    29    22    21    1
    30    12    11    2
    31    42    44    1
    32    42    39    1
    33    54    55    2
    34    54    63   am
    35    11    10    1
    36    63    64    1
    37    21    20    1
    38    21    24    1
    39    41    40    2
    40    16    18   ar
    41    16    14   ar
    42    40    39    1
    43    13    10    1
    44    13    14    1
    45    10     9    1
    46    39    38    1
    47    18    19   ar
    48    14    15   ar
    49     4     3    2
    50    24    25    1
    51    67    64    1
    52    67    68    1
    53    64    65    1
    54    70    68   ar
    55     9     3   am
    56     3     2    1
    57    88    86    1
    58    68    69   ar
    59    19    17   ar
    60    15    17   ar
    61    65    66    2
    62    65    71   am
    63    25    26    1
    64    86    87    1
    65    86    85    2
    66     2     5    1
    67     2     1    1
    68    26    27    1
    69     5     6    1
    70    71    72    1
    71    85    84    1
    72    76    75    1
    73    77    75    1
    74     6     8   ar
    75     6     7   ar
    76    99    97    1
    77    72    75    1
    78    72    73    1
    79    27    28    1
    80    84    83    1
    81    78    73   am
    82    78    79    1
    83    83    82    1
    84    82    79    1
    85    73    74    2
    86    97    98    1
    87    97    96    2
    88    79    80    1
    89    96    95    1
    90    95    94    1
    91    80    81    2
    92    94    93    1
    93    93    90    1
    94    89    90    1
    95    90    91    1
    96    92    91    2
