@<TRIPOS>MOLECULE
tmp/1nlyA00.pdb
 232 224 0 0 0
SMALL
GASTEIGER

@<TRIPOS>ATOM
      1  N        -49.5530   55.4550   27.0280 N.3    38  ASN38      -0.1225
      2  CA       -48.8570   56.0440   25.8800 C.3    38  ASN38       0.1785
      3  C        -48.1620   57.4060   26.0370 C.2    38  ASN38       0.2597
      4  O        -48.1860   58.2350   25.1170 O.2    38  ASN38      -0.2718
      5  CB       -49.8190   56.1010   24.7020 C.3    38  ASN38       0.1169
      6  CG       -50.6120   54.8300   24.5590 C.2    38  ASN38       0.2627
      7  OD1      -50.1360   53.7460   24.9020 O.2    38  ASN38      -0.2716
      8  ND2      -51.8280   54.9480   24.0460 N.am   38  ASN38      -0.0877
      9  N        -47.5440   57.6320   27.1950 N.am   39  ILE39      -0.1966
     10  CA       -46.8330   58.8820   27.4490 C.3    39  ILE39       0.1727
     11  C        -45.3550   58.5560   27.3600 C.2    39  ILE39       0.2616
     12  O        -44.9850   57.3930   27.4810 O.2    39  ILE39      -0.2715
     13  CB       -47.1350   59.4500   28.8650 C.3    39  ILE39       0.0290
     14  CG1      -46.7920   58.4080   29.9330 C.3    39  ILE39       0.0022
     15  CG2      -48.5760   59.8630   28.9610 C.3    39  ILE39       0.0023
     16  CD1      -47.0620   58.8400   31.3370 C.3    39  ILE39       0.0001
     17  N        -44.5130   59.5670   27.1570 N.am   40  THR40      -0.1951
     18  CA       -43.0780   59.3220   27.0630 C.3    40  THR40       0.1897
     19  C        -42.2440   60.1830   28.0210 C.2    40  THR40       0.2313
     20  O        -41.0810   59.8830   28.2940 O.2    40  THR40      -0.2863
     21  CB       -42.5810   59.5060   25.6020 C.3    40  THR40       0.1794
     22  OG1      -41.3170   58.8540   25.4370 O.3    40  THR40      -0.2208
     23  CG2      -42.3960   60.9590   25.2690 C.3    40  THR40       0.0378
     24  N        -47.0740   59.7350   23.2560 N.3    55  ASN55      -0.1240
     25  CA       -46.4760   59.0000   22.1400 C.3    55  ASN55       0.1653
     26  C        -46.7230   59.6800   20.8090 C.2    55  ASN55       0.2266
     27  O        -45.8650   59.6380   19.9280 O.2    55  ASN55      -0.2867
     28  CB       -47.0220   57.5570   22.0620 C.3    55  ASN55       0.1155
     29  CG       -46.5750   56.7040   23.2230 C.2    55  ASN55       0.2627
     30  OD1      -47.0390   55.5700   23.4060 O.2    55  ASN55      -0.2716
     31  ND2      -45.6650   57.2460   24.0240 N.am   55  ASN55      -0.0877
     32  N        -35.8190   57.2180   34.6780 N.3   106  ARG106     -0.1245
     33  CA       -34.8300   58.2870   34.8390 C.3   106  ARG106      0.1563
     34  C        -35.4570   59.6150   35.2510 C.2   106  ARG106      0.2260
     35  O        -36.4740   60.0290   34.7240 O.2   106  ARG106     -0.2867
     36  CB       -34.0560   58.4840   33.5330 C.3   106  ARG106      0.0307
     37  CG       -33.4650   57.1760   33.0350 C.3   106  ARG106      0.0489
     38  CD       -32.4570   57.3720   31.9180 C.3   106  ARG106      0.2205
     39  NE       -33.0600   57.3750   30.5900 N.pl3 106  ARG106     -0.0865
     40  CZ       -32.3670   57.5380   29.4610 C.cat 106  ARG106      0.5346
     41  NH1      -31.0400   57.7140   29.4870 N.pl3 106  ARG106      0.1354
     42  NH2      -33.0000   57.5260   28.2970 N.pl3 106  ARG106      0.1354
     43  N        -38.3960   60.3560   32.5260 N.3   126  ARG126     -0.1231
     44  CA       -38.4200   59.6500   31.2550 C.3   126  ARG126      0.1694
     45  C        -39.1140   58.3010   31.4410 C.2   126  ARG126      0.2592
     46  O        -38.6400   57.4520   32.2040 O.2   126  ARG126     -0.2718
     47  CB       -36.9960   59.4270   30.7510 C.3   126  ARG126      0.0321
     48  CG       -36.9100   58.4920   29.5540 C.3   126  ARG126      0.0489
     49  CD       -36.6640   59.2300   28.2380 C.3   126  ARG126      0.2205
     50  NE       -36.6970   58.3330   27.0760 N.pl3 126  ARG126     -0.0865
     51  CZ       -37.7830   57.6680   26.6800 C.cat 126  ARG126      0.5346
     52  NH1      -38.9110   57.8040   27.3570 N.pl3 126  ARG126      0.1354
     53  NH2      -37.7550   56.8790   25.6080 N.pl3 126  ARG126      0.1354
     54  N        -40.2430   58.1170   30.7570 N.am  127  ILE127     -0.1966
     55  CA       -40.9900   56.8660   30.8310 C.3   127  ILE127      0.1712
     56  C        -40.3600   55.8800   29.8510 C.2   127  ILE127      0.2458
     57  O        -40.4000   56.0990   28.6420 O.2   127  ILE127     -0.2730
     58  CB       -42.4550   57.0650   30.4220 C.3   127  ILE127      0.0289
     59  CG1      -43.0930   58.1560   31.2720 C.3   127  ILE127      0.0022
     60  CG2      -43.2170   55.7540   30.5860 C.3   127  ILE127      0.0023
     61  CD1      -43.3000   57.7640   32.6810 C.3   127  ILE127      0.0001
     62  N        -39.7930   54.7690   30.3580 N.am  128  PRO128     -0.2716
     63  CA       -39.1600   53.7710   29.4970 C.3   128  PRO128      0.1536
     64  C        -40.1360   53.1230   28.5180 C.2   128  PRO128      0.2599
     65  O        -41.3010   53.5150   28.4130 O.2   128  PRO128     -0.2715
     66  CB       -38.5930   52.7720   30.5030 C.3   128  PRO128      0.0310
     67  CG       -39.6290   52.7680   31.5500 C.3   128  PRO128      0.0237
     68  CD       -39.8910   54.2550   31.7370 C.3   128  PRO128      0.0939
     69  N        -39.6370   52.1320   27.7940 N.am  129  SER129     -0.1936
     70  CA       -40.4340   51.3940   26.8300 C.3   129  SER129      0.2055
     71  C        -41.1500   50.3190   27.6570 C.2   129  SER129      0.2643
     72  O        -40.5230   49.3440   28.0850 O.2   129  SER129     -0.2714
     73  CB       -39.4880   50.7770   25.7790 C.3   129  SER129      0.2130
     74  OG       -40.1480   49.9710   24.8150 O.3   129  SER129     -0.2179
     75  N        -42.4430   50.5080   27.9270 N.am  130  LYS130     -0.1963
     76  CA       -43.1600   49.5110   28.7180 C.3   130  LYS130      0.1728
     77  C        -44.1950   48.6870   27.9720 C.2   130  LYS130      0.2616
     78  O        -45.1990   48.2730   28.5550 O.2   130  LYS130     -0.2715
     79  CB       -43.8170   50.1460   29.9520 C.3   130  LYS130      0.0311
     80  CG       -44.7570   51.3010   29.6880 C.3   130  LYS130      0.0038
     81  CD       -45.2260   51.9220   31.0180 C.3   130  LYS130      0.0206
     82  CE       -44.0300   52.2840   31.9110 C.3   130  LYS130      0.1093
     83  NZ       -44.4130   52.9370   33.1980 N.3   130  LYS130     -0.1314
     84  N        -43.9410   48.4310   26.6940 N.am  131  THR131     -0.1951
     85  CA       -44.8480   47.6400   25.8750 C.3   131  THR131      0.1897
     86  C        -44.0040   46.9670   24.8210 C.2   131  THR131      0.2313
     87  O        -42.9110   47.4250   24.5120 O.2   131  THR131     -0.2863
     88  CB       -45.9000   48.5140   25.1650 C.3   131  THR131      0.1794
     89  OG1      -46.5240   49.3680   26.1280 O.3   131  THR131     -0.2208
     90  CG2      -46.9760   47.6510   24.5150 C.3   131  THR131      0.0378
     91  N        -44.5770   45.4790   20.9980 N.3   133  TYR133     -0.1241
     92  CA       -45.4300   45.2480   19.8440 C.3   133  TYR133      0.1605
     93  C        -44.6590   44.3110   18.9370 C.2   133  TYR133      0.2264
     94  O        -43.4540   44.4450   18.7740 O.2   133  TYR133     -0.2867
     95  CB       -45.7340   46.5550   19.1080 C.3   133  TYR133      0.0534
     96  CG       -46.0940   47.7170   20.0210 C.ar  133  TYR133     -0.0201
     97  CD1      -45.1070   48.3850   20.7600 C.ar  133  TYR133     -0.0009
     98  CD2      -47.4100   48.1820   20.1060 C.ar  133  TYR133     -0.0009
     99  CE1      -45.4180   49.4820   21.5480 C.ar  133  TYR133      0.0417
    100  CE2      -47.7320   49.2850   20.8960 C.ar  133  TYR133      0.0417
    101  CZ       -46.7260   49.9320   21.6150 C.ar  133  TYR133      0.1957
    102  OH       -46.9950   51.0250   22.4190 O.3   133  TYR133     -0.2866
    103  N        -46.5770   44.2240   13.7920 N.3   137  PHE137     -0.1227
    104  CA       -47.2710   45.4450   14.1580 C.3   137  PHE137      0.1736
    105  C        -46.6050   46.6490   13.4950 C.2   137  PHE137      0.2595
    106  O        -47.2900   47.5610   13.0350 O.2   137  PHE137     -0.2718
    107  CB       -47.2650   45.6230   15.6760 C.3   137  PHE137      0.0547
    108  CG       -47.9820   46.8550   16.1410 C.ar  137  PHE137     -0.0202
    109  CD1      -49.3780   46.8800   16.2070 C.ar  137  PHE137     -0.0042
    110  CD2      -47.2680   48.0080   16.4770 C.ar  137  PHE137     -0.0042
    111  CE1      -50.0560   48.0290   16.6040 C.ar  137  PHE137     -0.0003
    112  CE2      -47.9380   49.1670   16.8770 C.ar  137  PHE137     -0.0003
    113  CZ       -49.3410   49.1740   16.9370 C.ar  137  PHE137     -0.0000
    114  N        -45.2720   46.6410   13.4600 N.am  138  PHE138     -0.1976
    115  CA       -44.5030   47.7210   12.8470 C.3   138  PHE138      0.1639
    116  C        -44.7310   47.7780   11.3310 C.2   138  PHE138      0.2290
    117  O        -44.8450   48.8630   10.7580 O.2   138  PHE138     -0.2864
    118  CB       -42.9970   47.5600   13.1490 C.3   138  PHE138      0.0560
    119  CG       -42.5800   48.0590   14.5150 C.ar  138  PHE138     -0.0200
    120  CD1      -42.9130   47.3570   15.6630 C.ar  138  PHE138     -0.0042
    121  CD2      -41.8390   49.2340   14.6410 C.ar  138  PHE138     -0.0042
    122  CE1      -42.5200   47.8180   16.9200 C.ar  138  PHE138     -0.0003
    123  CE2      -41.4420   49.7060   15.8870 C.ar  138  PHE138     -0.0003
    124  CZ       -41.7810   48.9950   17.0350 C.ar  138  PHE138     -0.0000
    125  N        -48.2660   49.2480   10.6900 N.3   141  GLN141     -0.1245
    126  CA       -48.2880   50.6880   10.8870 C.3   141  GLN141      0.1566
    127  C        -47.4230   51.3640    9.8230 C.2   141  GLN141      0.2260
    128  O        -47.2030   52.5770    9.8590 O.2   141  GLN141     -0.2867
    129  CB       -47.7800   51.0210   12.2970 C.3   141  GLN141      0.0367
    130  CG       -48.5920   50.3630   13.4090 C.3   141  GLN141      0.0905
    131  CD       -49.8720   51.1220   13.7220 C.2   141  GLN141      0.2608
    132  OE1      -49.8420   52.1680   14.3930 O.2   141  GLN141     -0.2717
    133  NE2      -51.0060   50.6100   13.2280 N.am  141  GLN141     -0.0878
    134  N        -43.9730   50.9430    8.9020 N.3   143  PHE143     -0.1241
    135  CA       -42.6710   51.3640    9.4170 C.3   143  PHE143      0.1605
    136  C        -41.6410   51.4710    8.3070 C.2   143  PHE143      0.2264
    137  O        -40.7530   52.3100    8.3510 O.2   143  PHE143     -0.2867
    138  CB       -42.1870   50.3500   10.4520 C.3   143  PHE143      0.0534
    139  CG       -40.9230   50.7310   11.1310 C.ar  143  PHE143     -0.0203
    140  CD1      -40.9360   51.6420   12.1740 C.ar  143  PHE143     -0.0042
    141  CD2      -39.7190   50.1350   10.7700 C.ar  143  PHE143     -0.0042
    142  CE1      -39.7680   51.9480   12.8580 C.ar  143  PHE143     -0.0003
    143  CE2      -38.5470   50.4370   11.4490 C.ar  143  PHE143     -0.0003
    144  CZ       -38.5720   51.3450   12.4960 C.ar  143  PHE143     -0.0000
    145  N        -34.4520   61.1930   20.3300 N.3   173  THR173     -0.1203
    146  CA       -35.0340   60.7490   21.5910 C.3   173  THR173      0.1994
    147  C        -36.5110   60.3670   21.4720 C.2   173  THR173      0.2618
    148  O        -37.3360   61.1280   20.9500 O.2   173  THR173     -0.2717
    149  CB       -34.9190   61.8530   22.6570 C.3   173  THR173      0.1784
    150  OG1      -33.5430   62.2050   22.8240 O.3   173  THR173     -0.2211
    151  CG2      -35.4930   61.3830   24.0010 C.3   173  THR173      0.0376
    152  N        -36.8450   59.1890   21.9780 N.am  174  GLY174     -0.1942
    153  CA       -38.2210   58.7420   21.9310 C.3   174  GLY174      0.2014
    154  C        -38.6730   58.3960   20.5300 C.2   174  GLY174      0.2640
    155  O        -39.8740   58.2480   20.3150 O.2   174  GLY174     -0.2714
    156  N        -37.7330   58.2550   19.5910 N.am  175  SER175     -0.1935
    157  CA       -38.0580   57.9200   18.2050 C.3   175  SER175      0.2055
    158  C        -38.5800   56.4960   18.0330 C.2   175  SER175      0.2644
    159  O        -39.0680   56.1350   16.9590 O.2   175  SER175     -0.2714
    160  CB       -36.8390   58.1290   17.2970 C.3   175  SER175      0.2130
    161  OG       -35.9270   57.0510   17.4150 O.3   175  SER175     -0.2179
    162  N        -38.4660   55.6900   19.0840 N.am  176  GLY176     -0.1939
    163  CA       -38.9710   54.3340   19.0160 C.3   176  GLY176      0.2014
    164  C        -37.9260   53.2950   18.6890 C.2   176  GLY176      0.2639
    165  O        -38.2650   52.2200   18.1960 O.2   176  GLY176     -0.2714
    166  N        -36.6550   53.6090   18.9590 N.am  177  LYS177     -0.1963
    167  CA       -35.5430   52.7000   18.6680 C.3   177  LYS177      0.1728
    168  C        -35.5960   51.4440   19.5350 C.2   177  LYS177      0.2617
    169  O        -35.6200   50.3220   19.0150 O.2   177  LYS177     -0.2715
    170  CB       -34.2040   53.4150   18.8890 C.3   177  LYS177      0.0311
    171  CG       -34.0310   54.6990   18.0540 C.3   177  LYS177      0.0038
    172  CD       -32.6250   55.2990   18.2110 C.3   177  LYS177      0.0206
    173  CE       -32.3200   55.7050   19.6550 C.3   177  LYS177      0.1093
    174  NZ       -33.2690   56.7000   20.2270 N.3   177  LYS177     -0.1314
    175  N        -35.5990   51.6230   20.8580 N.am  178  THR178     -0.1937
    176  CA       -35.6600   50.5250   21.8090 C.3   178  THR178      0.2028
    177  C        -36.8510   49.6270   21.4650 C.2   178  THR178      0.2642
    178  O        -36.7430   48.3830   21.4020 O.2   178  THR178     -0.2714
    179  CB       -35.8670   51.0700   23.2170 C.3   178  THR178      0.1808
    180  OG1      -34.8320   52.0050   23.6020 O.3   178  THR178     -0.2208
    181  CG2      -35.9060   49.9400   24.1710 C.3   178  THR178      0.0379
    182  N        -37.9830   50.2560   21.2060 N.am  179  THR179     -0.1950
    183  CA       -39.1400   49.5120   20.8410 C.3   179  THR179      0.1897
    184  C        -38.8840   48.6600   19.5920 C.2   179  THR179      0.2313
    185  O        -39.1790   47.4690   19.5450 O.2   179  THR179     -0.2863
    186  CB       -40.2550   50.4770   20.5390 C.3   179  THR179      0.1794
    187  OG1      -40.4250   51.4180   21.6210 O.3   179  THR179     -0.2208
    188  CG2      -41.5080   49.7180   20.2630 C.3   179  THR179      0.0378
    189  N        -35.7070   47.5260   30.2050 N.3   201  GLU201     -0.1245
    190  CA       -36.6260   47.9020   29.1430 C.3   201  GLU201      0.1567
    191  C        -36.7990   46.7450   28.1840 C.2   201  GLU201      0.2260
    192  O        -37.8840   46.5050   27.6500 O.2   201  GLU201     -0.2867
    193  CB       -36.0620   49.0680   28.3480 C.3   201  GLU201      0.0388
    194  CG       -36.1850   50.4320   28.9740 C.3   201  GLU201      0.1160
    195  CD       -35.6710   51.5350   28.0410 C.2   201  GLU201      0.3649
    196  OE1      -34.4580   51.5580   27.7350 O.co2 201  GLU201     -0.2457
    197  OE2      -36.4810   52.3810   27.6010 O.co2 201  GLU201     -0.2457
    198  N        -27.9100   51.0860   24.5690 N.3   239  GLU239     -0.1245
    199  CA       -27.5520   52.1750   23.6670 C.3   239  GLU239      0.1567
    200  C        -26.0900   52.6350   23.8470 C.2   239  GLU239      0.2260
    201  O        -25.6800   53.0110   24.9050 O.2   239  GLU239     -0.2867
    202  CB       -28.4980   53.3750   23.8180 C.3   239  GLU239      0.0388
    203  CG       -28.6630   53.9740   25.2030 C.3   239  GLU239      0.1160
    204  CD       -29.5890   55.2050   25.1800 C.2   239  GLU239      0.3649
    205  OE1      -30.1360   55.5630   26.2510 O.co2 239  GLU239     -0.2457
    206  OE2      -29.7580   55.8250   24.0950 O.co2 239  GLU239     -0.2457
    207  N        -28.9010   50.5350   19.9880 N.3   262  THR262     -0.1218
    208  CA       -29.5420   51.7830   19.6020 C.3   262  THR262      0.1862
    209  C        -28.5560   52.9090   19.8760 C.2   262  THR262      0.2287
    210  O        -27.6930   52.8040   20.7400 O.2   262  THR262     -0.2866
    211  CB       -30.8440   52.0430   20.3950 C.3   262  THR262      0.1770
    212  OG1      -30.5210   52.3830   21.7410 O.3   262  THR262     -0.2211
    213  CG2      -31.7170   50.8100   20.3960 C.3   262  THR262      0.0375
    214  N        -27.9430   57.5270   19.4250 N.3   264  HIS264     -0.1241
    215  CA       -28.4290   58.8470   19.0640 C.3   264  HIS264      0.1621
    216  C        -27.6370   59.2960   17.8640 C.2   264  HIS264      0.2264
    217  O        -26.4520   59.6180   17.9730 O.2   264  HIS264     -0.2867
    218  CB       -28.2070   59.8560   20.1840 C.3   264  HIS264      0.0745
    219  CG       -29.3920   60.0460   21.0770 C.ar  264  HIS264      0.0817
    220  ND1      -29.7560   59.1290   22.0390 N.ar  264  HIS264     -0.2268
    221  CD2      -30.3030   61.0460   21.1450 C.ar  264  HIS264      0.1154
    222  CE1      -30.8410   59.5540   22.6620 C.ar  264  HIS264      0.1986
    223  NE2      -31.1930   60.7150   22.1380 N.ar  264  HIS264     -0.2212
    224  N        -41.6900   58.3170   13.9850 N.3   309  LYS309     -0.1245
    225  CA       -41.5670   56.8890   14.2410 C.3   309  LYS309      0.1561
    226  C        -41.7300   56.0890   12.9610 C.2   309  LYS309      0.2260
    227  O        -42.6400   55.2670   12.8280 O.2   309  LYS309     -0.2867
    228  CB       -42.5930   56.4650   15.2970 C.3   309  LYS309      0.0271
    229  CG       -42.5310   57.3500   16.5360 C.3   309  LYS309      0.0035
    230  CD       -42.9940   56.6390   17.7890 C.3   309  LYS309      0.0206
    231  CE       -42.7180   57.4970   19.0360 C.3   309  LYS309      0.1093
    232  NZ       -43.4340   58.8220   19.0460 N.3   309  LYS309     -0.1314
@<TRIPOS>BOND
     1   136   137    2
     2   136   135    1
     3   134   135    1
     4   135   138    1
     5   127   128    2
     6   127   126    1
     7   138   139    1
     8   125   126    1
     9   117   116    2
    10   141   139   ar
    11   141   143   ar
    12   126   129    1
    13   139   140   ar
    14   116   115    1
    15   143   144   ar
    16   140   142   ar
    17   129   130    1
    18   144   142   ar
    19   227   226    2
    20   115   118    1
    21   115   114    1
    22   226   225    1
    23   106   105    2
    24   118   119    1
    25   133   131   am
    26   130   131    1
    27   114   105   am
    28   105   104    1
    29   131   132    2
    30   103   104    1
    31   224   225    1
    32   104   107    1
    33   225   228    1
    34   119   121   ar
    35   119   120   ar
    36   121   123   ar
    37   228   229    1
    38   120   122   ar
    39   107   108    1
    40   123   124   ar
    41   108   109   ar
    42   108   110   ar
    43   109   111   ar
    44   110   112   ar
    45   229   230    1
    46   111   113   ar
    47   112   113   ar
    48   122   124   ar
    49   159   158    2
    50   160   161    1
    51   160   157    1
    52   230   231    1
    53   216   217    2
    54   216   215    1
    55   158   157    1
    56   158   162   am
    57   171   172    1
    58   171   170    1
    59   165   164    2
    60   157   156    1
    61   172   173    1
    62   167   170    1
    63   167   166    1
    64   167   168    1
    65   164   166   am
    66   164   163    1
    67    94    93    2
    68    93    92    1
    69   169   168    2
    70   163   162    1
    71   231   232    1
    72   215   214    1
    73   215   218    1
    74    95    92    1
    75    95    96    1
    76   168   175   am
    77   185   184    2
    78   156   154   am
    79   184   183    1
    80   208   209    1
    81   208   207    1
    82   208   211    1
    83   173   174    1
    84    92    91    1
    85   209   210    2
    86    27    26    2
    87    96    98   ar
    88    96    97   ar
    89    98   100   ar
    90   218   219    1
    91   188   186    1
    92   155   154    2
    93   145   146    1
    94   211   213    1
    95   211   212    1
    96   154   153    1
    97   186   183    1
    98   186   187    1
    99    97    99   ar
   100    26    25    1
   101   183   182    1
   102   175   176    1
   103   100   101   ar
   104   148   147    2
   105   219   221   ar
   106   219   220   ar
   107   221   223   ar
   108   182   177   am
   109   178   177    2
   110   177   176    1
   111   147   146    1
   112   147   152   am
   113    99   101   ar
   114   146   149    1
   115   101   102    1
   116   176   179    1
   117   153   152    1
   118   220   222   ar
   119    28    25    1
   120    28    29    1
   121   223   222   ar
   122    25    24    1
   123   149   150    1
   124   149   151    1
   125   179   180    1
   126   179   181    1
   127    29    30    2
   128    29    31   am
   129   199   202    1
   130   199   200    1
   131   199   198    1
   132   202   203    1
   133   200   201    2
   134     8     6   am
   135   206   204   ar
   136    87    86    2
   137    90    88    1
   138     6     5    1
   139     6     7    2
   140     5     2    1
   141    74    73    1
   142    86    85    1
   143     4     3    2
   144    88    85    1
   145    88    89    1
   146   204   203    1
   147   204   205   ar
   148    23    21    1
   149    22    21    1
   150    21    18    1
   151    53    51    1
   152    73    70    1
   153    85    84    1
   154     2     3    1
   155     2     1    1
   156     3     9   am
   157    51    50    2
   158    51    52    1
   159    84    77   am
   160    70    71    1
   161    70    69    1
   162    18    17    1
   163    18    19    1
   164    50    49    1
   165    17    11   am
   166     9    10    1
   167    11    10    1
   168    11    12    2
   169    10    13    1
   170   197   195   ar
   171   192   191    2
   172    71    75   am
   173    71    72    2
   174   196   195   ar
   175    69    64   am
   176    75    76    1
   177    77    78    2
   178    77    76    1
   179    19    20    2
   180   195   194    1
   181   191   190    1
   182    49    48    1
   183    42    40    1
   184   193   194    1
   185   193   190    1
   186    65    64    2
   187    64    63    1
   188    57    56    2
   189    76    79    1
   190    13    15    1
   191    13    14    1
   192   190   189    1
   193    40    41    1
   194    40    39    2
   195    63    62    1
   196    63    66    1
   197    48    47    1
   198    80    79    1
   199    80    81    1
   200    56    62   am
   201    56    55    1
   202    14    16    1
   203    62    68    1
   204    58    60    1
   205    58    55    1
   206    58    59    1
   207    66    67    1
   208    39    38    1
   209    47    44    1
   210    54    55    1
   211    54    45   am
   212    81    82    1
   213    44    45    1
   214    44    43    1
   215    59    61    1
   216    45    46    2
   217    67    68    1
   218    82    83    1
   219    38    37    1
   220    37    36    1
   221    36    33    1
   222    32    33    1
   223    35    34    2
   224    33    34    1
