@<TRIPOS>MOLECULE
tmp/1nm6A00.pdb
 194 195 0 0 0
SMALL
GASTEIGER

@<TRIPOS>ATOM
      1  N         22.5370   -6.9670   18.2770 N.3    69  HIS69      -0.1241
      2  CA        22.3900   -8.3300   17.7600 C.3    69  HIS69       0.1621
      3  C         21.6640   -8.4170   16.4180 C.2    69  HIS69       0.2264
      4  O         21.7120   -9.4430   15.7380 O.2    69  HIS69      -0.2867
      5  CB        21.7110   -9.2920   18.8320 C.3    69  HIS69       0.0745
      6  CG        20.2130   -9.2830   18.8170 C.ar   69  HIS69       0.0817
      7  ND1       19.4620   -8.5260   19.6890 N.ar   69  HIS69      -0.2268
      8  CD2       19.3280   -9.9520   18.0390 C.ar   69  HIS69       0.1154
      9  CE1       18.1780   -8.7280   19.4500 C.ar   69  HIS69       0.1986
     10  NE2       18.0700   -9.5900   18.4540 N.ar   69  HIS69      -0.2212
     11  N         25.7930  -11.0060   15.3060 N.3    73  TYR73      -0.1241
     12  CA        25.5610  -12.1180   16.2130 C.3    73  TYR73       0.1605
     13  C         26.1660  -13.4100   15.6620 C.2    73  TYR73       0.2264
     14  O         25.4700  -14.2390   15.0730 O.2    73  TYR73      -0.2867
     15  CB        24.0750  -12.3140   16.4890 C.3    73  TYR73       0.0534
     16  CG        23.8590  -13.2300   17.6650 C.ar   73  TYR73      -0.0201
     17  CD1       24.3310  -12.8840   18.9260 C.ar   73  TYR73      -0.0009
     18  CD2       23.2680  -14.4740   17.5030 C.ar   73  TYR73      -0.0009
     19  CE1       24.2310  -13.7600   19.9910 C.ar   73  TYR73       0.0417
     20  CE2       23.1600  -15.3560   18.5620 C.ar   73  TYR73       0.0417
     21  CZ        23.6470  -14.9950   19.8030 C.ar   73  TYR73       0.1957
     22  OH        23.5700  -15.8850   20.8480 O.3    73  TYR73      -0.2866
     23  N         24.7070  -17.1270   15.2110 N.3    76  TRP76      -0.1241
     24  CA        23.7640  -17.4070   14.1250 C.3    76  TRP76       0.1605
     25  C         24.3030  -16.8930   12.7890 C.2    76  TRP76       0.2264
     26  O         23.5360  -16.6380   11.8580 O.2    76  TRP76      -0.2867
     27  CB        22.4030  -16.7460   14.3950 C.3    76  TRP76       0.0550
     28  CG        21.6970  -17.2240   15.6300 C.ar   76  TRP76       0.0003
     29  CD1       21.9590  -18.3580   16.3480 C.ar   76  TRP76       0.0946
     30  CD2       20.5880  -16.5890   16.2760 C.ar   76  TRP76       0.0152
     31  NE1       21.0840  -18.4640   17.4020 N.ar   76  TRP76      -0.2442
     32  CE2       20.2340  -17.3880   17.3830 C.ar   76  TRP76       0.0810
     33  CE3       19.8650  -15.4150   16.0300 C.ar   76  TRP76       0.0012
     34  CZ2       19.1820  -17.0570   18.2360 C.ar   76  TRP76       0.0191
     35  CZ3       18.8210  -15.0890   16.8820 C.ar   76  TRP76       0.0001
     36  CH2       18.4930  -15.9050   17.9720 C.ar   76  TRP76       0.0015
     37  N         28.1310  -10.2490   22.7250 N.3   118  TRP118     -0.1241
     38  CA        27.3910  -11.2500   21.9620 C.3   118  TRP118      0.1605
     39  C         27.7370  -12.6710   22.3920 C.2   118  TRP118      0.2264
     40  O         26.9790  -13.6060   22.1370 O.2   118  TRP118     -0.2867
     41  CB        27.6590  -11.1020   20.4400 C.3   118  TRP118      0.0550
     42  CG        29.1160  -11.0480   20.0460 C.ar  118  TRP118      0.0003
     43  CD1       29.8710   -9.9270   19.8540 C.ar  118  TRP118      0.0946
     44  CD2       29.9780  -12.1640   19.7770 C.ar  118  TRP118      0.0152
     45  NE1       31.1480  -10.2740   19.4790 N.ar  118  TRP118     -0.2442
     46  CE2       31.2400  -11.6400   19.4250 C.ar  118  TRP118      0.0810
     47  CE3       29.8060  -13.5520   19.8010 C.ar  118  TRP118      0.0012
     48  CZ2       32.3230  -12.4560   19.0960 C.ar  118  TRP118      0.0191
     49  CZ3       30.8840  -14.3620   19.4740 C.ar  118  TRP118      0.0001
     50  CH2       32.1250  -13.8100   19.1280 C.ar  118  TRP118      0.0015
     51  N         28.0390  -13.9100   25.5340 N.3   120  GLU120     -0.1231
     52  CA        27.3010  -14.4080   26.6850 C.3   120  GLU120      0.1699
     53  C         25.8120  -14.1020   26.8340 C.2   120  GLU120      0.2592
     54  O         24.9700  -14.9740   26.6200 O.2   120  GLU120     -0.2718
     55  CB        28.0190  -13.9570   27.9880 C.3   120  GLU120      0.0402
     56  CG        27.5240  -14.6790   29.2620 C.3   120  GLU120      0.1161
     57  CD        27.8650  -13.9320   30.5410 C.2   120  GLU120      0.3649
     58  OE1       28.8870  -13.2150   30.5610 O.co2 120  GLU120     -0.2457
     59  OE2       27.1150  -14.0730   31.5330 O.co2 120  GLU120     -0.2457
     60  N         25.4940  -12.8630   27.2010 N.am  121  ASN121     -0.1960
     61  CA        24.1130  -12.4700   27.4830 C.3   121  ASN121      0.1819
     62  C         23.5750  -11.2260   26.7750 C.2   121  ASN121      0.2621
     63  O         22.6040  -10.6270   27.2410 O.2   121  ASN121     -0.2715
     64  CB        23.9900  -12.2460   28.9840 C.3   121  ASN121      0.1195
     65  CG        24.9410  -11.1640   29.4780 C.2   121  ASN121      0.2630
     66  OD1       25.6440  -10.5440   28.6830 O.2   121  ASN121     -0.2716
     67  ND2       24.9650  -10.9320   30.7850 N.am  121  ASN121     -0.0877
     68  N         24.1870  -10.8410   25.6610 N.am  122  LEU122     -0.1977
     69  CA        23.7670   -9.6500   24.9200 C.3   122  LEU122      0.1596
     70  C         23.8340   -8.3670   25.7520 C.2   122  LEU122      0.2287
     71  O         23.0370   -7.4510   25.5540 O.2   122  LEU122     -0.2864
     72  CB        22.3190   -9.8160   24.3520 C.3   122  LEU122      0.0297
     73  CG        22.0910  -10.9570   23.3450 C.3   122  LEU122      0.0022
     74  CD1       20.7270  -10.7850   22.6650 C.3   122  LEU122      0.0001
     75  CD2       23.2020  -10.9630   22.3130 C.3   122  LEU122      0.0001
     76  N         19.9800  -16.8920   32.7640 N.3   197  ILE197     -0.1245
     77  CA        20.8700  -15.9410   32.0930 C.3   197  ILE197      0.1561
     78  C         21.2520  -14.8400   33.0840 C.2   197  ILE197      0.2260
     79  O         20.4100  -14.3620   33.8500 O.2   197  ILE197     -0.2867
     80  CB        20.1610  -15.2730   30.8610 C.3   197  ILE197      0.0252
     81  CG1       19.6930  -16.3420   29.8660 C.3   197  ILE197      0.0019
     82  CG2       21.1070  -14.3020   30.1510 C.3   197  ILE197      0.0019
     83  CD1       20.8210  -17.0450   29.1440 C.3   197  ILE197      0.0001
     84  N          4.1300   -9.8020   24.7480 N.3   217  ASP217     -0.1225
     85  CA         5.5840   -9.9000   24.7330 C.3   217  ASP217      0.1805
     86  C          6.0470   -9.6190   23.3120 C.2   217  ASP217      0.2598
     87  O          5.2390   -9.6110   22.3760 O.2   217  ASP217     -0.2718
     88  CB         6.0100  -11.3350   25.1410 C.3   217  ASP217      0.1424
     89  CG         7.5030  -11.4670   25.4190 C.2   217  ASP217      0.3668
     90  OD1        7.9720  -12.6160   25.5590 O.co2 217  ASP217     -0.2456
     91  OD2        8.2090  -10.4450   25.5100 O.co2 217  ASP217     -0.2456
     92  N          7.3430   -9.3630   23.1720 N.am  218  ALA218     -0.1966
     93  CA         7.9540   -9.1440   21.8800 C.3   218  ALA218      0.1728
     94  C          8.3100  -10.5630   21.4470 C.2   218  ALA218      0.2616
     95  O          8.2100  -11.5000   22.2420 O.2   218  ALA218     -0.2715
     96  CB         9.2050   -8.2960   22.0220 C.3   218  ALA218      0.0334
     97  N          8.7040  -10.7240   20.1920 N.am  219  CYS219     -0.1954
     98  CA         9.0470  -12.0450   19.6840 C.3   219  CYS219      0.1843
     99  C         10.0260  -11.8930   18.5340 C.2   219  CYS219      0.2625
    100  O         10.4760  -10.7830   18.2680 O.2   219  CYS219     -0.2714
    101  CB         7.7560  -12.7790   19.2390 C.3   219  CYS219      0.0997
    102  SG         7.8790  -14.6030   19.1120 S.3   219  CYS219     -0.0797
    103  N         10.3830  -12.9960   17.8760 N.am  220  GLU220     -0.1977
    104  CA        11.3230  -12.9480   16.7590 C.3   220  GLU220      0.1602
    105  C         10.8880  -11.8970   15.7440 C.2   220  GLU220      0.2287
    106  O          9.7200  -11.8540   15.3550 O.2   220  GLU220     -0.2864
    107  CB        11.4130  -14.3250   16.0850 C.3   220  GLU220      0.0415
    108  CG        12.3920  -14.3890   14.9250 C.3   220  GLU220      0.1163
    109  CD        12.5480  -15.7970   14.3740 C.2   220  GLU220      0.3649
    110  OE1       13.1860  -15.9530   13.3100 O.co2 220  GLU220     -0.2457
    111  OE2       12.0370  -16.7450   15.0090 O.co2 220  GLU220     -0.2457
    112  N         13.0830   -7.5610   17.6370 N.3   223  SER223     -0.1217
    113  CA        14.3930   -7.1280   18.1090 C.3   223  SER223      0.1889
    114  C         14.7690   -5.7770   17.5320 C.2   223  SER223      0.2288
    115  O         14.5200   -5.5140   16.3620 O.2   223  SER223     -0.2866
    116  CB        15.4470   -8.1440   17.6830 C.3   223  SER223      0.2089
    117  OG        15.1990   -9.4150   18.2550 O.3   223  SER223     -0.2183
    118  N         14.1510   -3.5740   22.2960 N.3   243  VAL243     -0.1231
    119  CA        13.8110   -4.9930   22.3770 C.3   243  VAL243      0.1692
    120  C         15.0980   -5.7810   22.1940 C.2   243  VAL243      0.2593
    121  O         15.7320   -5.7050   21.1390 O.2   243  VAL243     -0.2718
    122  CB        12.8090   -5.4000   21.2770 C.3   243  VAL243      0.0266
    123  CG1       12.4570   -6.8780   21.4120 C.3   243  VAL243      0.0020
    124  CG2       11.5600   -4.5470   21.3810 C.3   243  VAL243      0.0020
    125  N         15.4820   -6.5450   23.2130 N.am  244  SER244     -0.1938
    126  CA        16.7270   -7.2930   23.1340 C.3   244  SER244      0.2055
    127  C         16.6390   -8.8080   23.0950 C.2   244  SER244      0.2643
    128  O         16.9710   -9.4120   22.0780 O.2   244  SER244     -0.2714
    129  CB        17.6580   -6.8680   24.2840 C.3   244  SER244      0.2130
    130  OG        17.8930   -5.4760   24.2130 O.3   244  SER244     -0.2179
    131  N         16.2110   -9.4270   24.1920 N.am  245  TRP245     -0.1959
    132  CA        16.1400  -10.8840   24.2300 C.3   245  TRP245      0.1771
    133  C         15.0640  -11.5000   25.1160 C.2   245  TRP245      0.2620
    134  O         14.4390  -10.8420   25.9530 O.2   245  TRP245     -0.2715
    135  CB        17.5350  -11.4780   24.6560 C.3   245  TRP245      0.0590
    136  CG        17.9800  -11.1100   26.0600 C.ar  245  TRP245      0.0006
    137  CD1       18.6890  -10.0050   26.4330 C.ar  245  TRP245      0.0946
    138  CD2       17.7540  -11.8630   27.2630 C.ar  245  TRP245      0.0152
    139  NE1       18.9220  -10.0230   27.7880 N.ar  245  TRP245     -0.2442
    140  CE2       18.3590  -11.1530   28.3210 C.ar  245  TRP245      0.0810
    141  CE3       17.1000  -13.0700   27.5460 C.ar  245  TRP245      0.0012
    142  CZ2       18.3310  -11.6090   29.6430 C.ar  245  TRP245      0.0191
    143  CZ3       17.0730  -13.5210   28.8590 C.ar  245  TRP245      0.0001
    144  CH2       17.6860  -12.7920   29.8890 C.ar  245  TRP245      0.0015
    145  N         14.8730  -12.7960   24.9220 N.am  246  GLY246     -0.1940
    146  CA        13.9030  -13.5260   25.7060 C.3   246  GLY246      0.2014
    147  C         14.0740  -15.0140   25.4770 C.2   246  GLY246      0.2639
    148  O         14.8520  -15.4450   24.6210 O.2   246  GLY246     -0.2714
    149  N         13.3660  -15.7980   26.2710 N.am  247  GLU247     -0.1963
    150  CA        13.3810  -17.2440   26.1460 C.3   247  GLU247      0.1733
    151  C         11.9360  -17.5560   25.7850 C.2   247  GLU247      0.2617
    152  O         11.0430  -17.4940   26.6270 O.2   247  GLU247     -0.2715
    153  CB        13.7980  -17.8660   27.4590 C.3   247  GLU247      0.0429
    154  CG        15.2950  -17.6260   27.7500 C.3   247  GLU247      0.1163
    155  CD        15.7100  -18.0370   29.1470 C.2   247  GLU247      0.3649
    156  OE1       15.1880  -17.4540   30.1180 O.co2 247  GLU247     -0.2457
    157  OE2       16.5660  -18.9370   29.2670 O.co2 247  GLU247     -0.2457
    158  N         11.7150  -17.8600   24.5110 N.am  248  GLY248     -0.1940
    159  CA        10.3720  -18.1140   24.0340 C.3   248  GLY248      0.2014
    160  C          9.7000  -16.7610   23.8670 C.2   248  GLY248      0.2639
    161  O         10.3460  -15.7200   23.9800 O.2   248  GLY248     -0.2714
    162  N          8.4060  -16.7740   23.6000 N.am  249  CYS249     -0.1967
    163  CA         7.6270  -15.5570   23.4320 C.3   249  CYS249      0.1712
    164  C          6.3480  -15.7060   24.2430 C.2   249  CYS249      0.2296
    165  O          5.6090  -16.6870   24.0930 O.2   249  CYS249     -0.2864
    166  CB         7.2600  -15.3690   21.9910 C.3   249  CYS249      0.0983
    167  SG         8.6900  -15.1480   20.8960 S.3   249  CYS249     -0.0798
    168  N         10.2640  -10.4290   28.6990 N.3   256  GLY256     -0.1210
    169  CA        11.1260   -9.9440   27.6420 C.3   256  GLY256      0.1956
    170  C         12.1470   -9.0240   28.2810 C.2   256  GLY256      0.2612
    171  O         11.8500   -8.3620   29.2800 O.2   256  GLY256     -0.2717
    172  N         13.3530   -8.9980   27.7250 N.am  257  PHE257     -0.1962
    173  CA        14.4180   -8.1500   28.2450 C.3   257  PHE257      0.1771
    174  C         14.7630   -7.0680   27.2530 C.2   257  PHE257      0.2619
    175  O         14.8120   -7.3020   26.0410 O.2   257  PHE257     -0.2715
    176  CB        15.6590   -8.9820   28.6060 C.3   257  PHE257      0.0574
    177  CG        15.5210   -9.7210   29.9050 C.ar  257  PHE257     -0.0200
    178  CD1       14.7780  -10.8890   29.9830 C.ar  257  PHE257     -0.0042
    179  CD2       16.0980   -9.2190   31.0640 C.ar  257  PHE257     -0.0042
    180  CE1       14.6110  -11.5470   31.1940 C.ar  257  PHE257     -0.0003
    181  CE2       15.9380   -9.8680   32.2790 C.ar  257  PHE257     -0.0003
    182  CZ        15.1960  -11.0300   32.3470 C.ar  257  PHE257     -0.0000
    183  N         15.0100   -5.8820   27.7910 N.am  258  TYR258     -0.1974
    184  CA        15.2890   -4.7090   26.9940 C.3   258  TYR258      0.1639
    185  C         16.5840   -4.0170   27.3540 C.2   258  TYR258      0.2290
    186  O         16.9930   -4.0000   28.5160 O.2   258  TYR258     -0.2864
    187  CB        14.1290   -3.7140   27.1610 C.3   258  TYR258      0.0560
    188  CG        12.7840   -4.3010   26.8070 C.ar  258  TYR258     -0.0198
    189  CD1       12.1250   -5.1800   27.6660 C.ar  258  TYR258     -0.0009
    190  CD2       12.2030   -4.0340   25.5720 C.ar  258  TYR258     -0.0009
    191  CE1       10.9300   -5.7800   27.2940 C.ar  258  TYR258      0.0417
    192  CE2       11.0230   -4.6250   25.2000 C.ar  258  TYR258      0.0417
    193  CZ        10.3880   -5.4970   26.0580 C.ar  258  TYR258      0.1957
    194  OH         9.2100   -6.0880   25.6640 O.3   258  TYR258     -0.2866
@<TRIPOS>BOND
     1    26    25    2
     2    25    24    1
     3   110   109   ar
     4    24    27    1
     5    24    23    1
     6   109   108    1
     7   109   111   ar
     8    27    28    1
     9   108   107    1
    10    14    13    2
    11    11    12    1
    12   106   105    2
    13    28    30   ar
    14    28    29   ar
    15    13    12    1
    16     4     3    2
    17   105   104    1
    18    33    30   ar
    19    33    35   ar
    20   107   104    1
    21    12    15    1
    22    30    32   ar
    23    29    31   ar
    24   115   114    2
    25     3     2    1
    26    15    16    1
    27   104   103    1
    28    35    36   ar
    29    32    31   ar
    30    32    34   ar
    31    18    16   ar
    32    18    20   ar
    33   114   113    1
    34   112   113    1
    35    16    17   ar
    36   116   113    1
    37   116   117    1
    38     2     1    1
    39     2     5    1
    40   103    99   am
    41    36    34   ar
    42     8    10   ar
    43     8     6   ar
    44   100    99    2
    45    10     9   ar
    46    99    98    1
    47    20    21   ar
    48     6     5    1
    49     6     7   ar
    50    17    19   ar
    51    48    50   ar
    52    48    46   ar
    53   102   101    1
    54   102   167    1
    55    50    49   ar
    56   101    98    1
    57    46    45   ar
    58    46    44   ar
    59     9     7   ar
    60    49    47   ar
    61    45    43   ar
    62    98    97    1
    63    44    47   ar
    64    44    42   ar
    65    21    19   ar
    66    21    22    1
    67    43    42   ar
    68    42    41    1
    69    97    94   am
    70    41    38    1
    71   167   166    1
    72   121   120    2
    73   122   124    1
    74   122   123    1
    75   122   119    1
    76    94    93    1
    77    94    95    2
    78    93    96    1
    79    93    92    1
    80    38    39    1
    81    38    37    1
    82   166   163    1
    83   128   127    2
    84    40    39    2
    85   120   119    1
    86   120   125   am
    87   118   119    1
    88    75    73    1
    89    87    86    2
    90    74    73    1
    91   127   126    1
    92   127   131   am
    93   126   125    1
    94   126   129    1
    95    92    86   am
    96    86    85    1
    97    73    72    1
    98   163   162    1
    99   163   164    1
   100   162   160   am
   101   160   161    2
   102   160   159    1
   103   159   158    1
   104   165   164    2
   105   131   132    1
   106   130   129    1
   107   132   135    1
   108   132   133    1
   109    72    69    1
   110   158   151   am
   111   148   147    2
   112   135   136    1
   113    85    84    1
   114    85    88    1
   115    69    68    1
   116    69    70    1
   117   145   133   am
   118   145   146    1
   119   133   134    2
   120    88    89    1
   121   192   190   ar
   122   192   193   ar
   123    89    91   ar
   124    89    90   ar
   125   147   146    1
   126   147   149   am
   127    51    52    1
   128    71    70    2
   129   190   188   ar
   130    68    62   am
   131   194   193    1
   132   151   150    1
   133   151   152    2
   134   175   174    2
   135   193   191   ar
   136   136   137   ar
   137   136   138   ar
   138   150   149    1
   139   150   153    1
   140   137   139   ar
   141    54    53    2
   142    52    53    1
   143    52    55    1
   144    62    63    2
   145    62    61    1
   146   188   187    1
   147   188   189   ar
   148    53    60   am
   149   184   187    1
   150   184   185    1
   151   184   183    1
   152    60    61    1
   153   174   183   am
   154   174   173    1
   155   138   141   ar
   156   138   140   ar
   157   191   189   ar
   158   185   186    2
   159   153   154    1
   160    61    64    1
   161   141   143   ar
   162   169   170    1
   163   169   168    1
   164   172   173    1
   165   172   170   am
   166   154   155    1
   167   139   140   ar
   168    55    56    1
   169   173   176    1
   170   170   171    2
   171   140   142   ar
   172   176   177    1
   173    66    65    2
   174   143   144   ar
   175    64    65    1
   176    83    81    1
   177   155   157   ar
   178   155   156   ar
   179    56    57    1
   180    65    67   am
   181   142   144   ar
   182    81    80    1
   183   177   178   ar
   184   177   179   ar
   185   178   180   ar
   186    82    80    1
   187    57    58   ar
   188    57    59   ar
   189    80    77    1
   190   179   181   ar
   191   180   182   ar
   192    77    76    1
   193    77    78    1
   194   181   182   ar
   195    78    79    2
