@<TRIPOS>MOLECULE
tmp/1nmaA00.pdb
 170 161 0 0 0
SMALL
GASTEIGER

@<TRIPOS>ATOM
      1  N         55.4370   64.7570   48.8200 N.3    15  SER15      -0.1217
      2  CA        55.7490   65.4450   47.5840 C.3    15  SER15       0.1889
      3  C         57.2370   65.7570   47.6300 C.2    15  SER15       0.2288
      4  O         57.9400   65.4420   48.6100 O.2    15  SER15      -0.2866
      5  CB        54.9750   66.7460   47.4700 C.3    15  SER15       0.2089
      6  OG        54.2540   66.8150   46.2550 O.3    15  SER15      -0.2183
      7  N         58.8000   46.4500   40.8990 N.3   241  VAL241     -0.1245
      8  CA        59.0790   47.6870   40.1880 C.3   241  VAL241      0.1561
      9  C         60.5990   47.6550   40.0160 C.2   241  VAL241      0.2260
     10  O         61.3780   47.8440   40.9680 O.2   241  VAL241     -0.2867
     11  CB        58.6540   48.9120   41.0010 C.3   241  VAL241      0.0252
     12  CG1       58.6760   50.0980   40.0680 C.3   241  VAL241      0.0019
     13  CG2       57.2860   48.7360   41.6110 C.3   241  VAL241      0.0019
     14  N         66.4440   47.4330   32.0550 N.3   247  ARG247     -0.1245
     15  CA        65.8070   46.3880   32.8160 C.3   247  ARG247      0.1563
     16  C         65.0330   45.5320   31.8300 C.2   247  ARG247      0.2260
     17  O         64.9800   45.8910   30.6350 O.2   247  ARG247     -0.2867
     18  CB        64.8960   47.0200   33.8480 C.3   247  ARG247      0.0307
     19  CG        63.8720   48.0690   33.4000 C.3   247  ARG247      0.0489
     20  CD        63.2490   48.6360   34.6820 C.3   247  ARG247      0.2205
     21  NE        62.2600   49.6820   34.4710 N.pl3 247  ARG247     -0.0865
     22  CZ        62.5730   50.9670   34.4670 C.cat 247  ARG247      0.5346
     23  NH1       63.8070   51.3920   34.6540 N.pl3 247  ARG247      0.1354
     24  NH2       61.6190   51.8510   34.2620 N.pl3 247  ARG247      0.1354
     25  N         60.9080   44.3130   31.4810 N.3   249  ASN249     -0.1225
     26  CA        59.6250   44.9420   31.7450 C.3   249  ASN249      0.1785
     27  C         59.1580   44.6020   33.1610 C.2   249  ASN249      0.2597
     28  O         59.6250   43.5970   33.7010 O.2   249  ASN249     -0.2718
     29  CB        58.6320   44.4330   30.7010 C.3   249  ASN249      0.1169
     30  CG        58.3300   45.3690   29.5560 C.2   249  ASN249      0.2627
     31  OD1       57.7710   46.4250   29.7800 O.2   249  ASN249     -0.2716
     32  ND2       58.5940   45.0850   28.3040 N.am  249  ASN249     -0.0877
     33  N         58.2610   45.3540   33.8010 N.am  250  ASP250     -0.1974
     34  CA        57.7700   45.0480   35.1420 C.3   250  ASP250      0.1709
     35  C         57.0670   43.7170   35.4540 C.2   250  ASP250      0.2293
     36  O         55.9270   43.5060   35.0210 O.2   250  ASP250     -0.2864
     37  CB        56.8550   46.1740   35.5630 C.3   250  ASP250      0.1436
     38  CG        57.4930   47.2850   36.3760 C.2   250  ASP250      0.3671
     39  OD1       58.7210   47.4210   36.4190 O.co2 250  ASP250     -0.2456
     40  OD2       56.7230   48.0270   36.9820 O.co2 250  ASP250     -0.2456
     41  N         63.4750   55.7880   39.2700 N.3   283  ARG283     -0.1245
     42  CA        64.0650   55.0150   38.1720 C.3   283  ARG283      0.1563
     43  C         64.0870   55.8460   36.9010 C.2   283  ARG283      0.2260
     44  O         63.6280   56.9950   36.9340 O.2   283  ARG283     -0.2867
     45  CB        63.2800   53.7300   37.9070 C.3   283  ARG283      0.0307
     46  CG        61.8760   53.9260   37.4240 C.3   283  ARG283      0.0489
     47  CD        60.9400   53.0950   38.2620 C.3   283  ARG283      0.2205
     48  NE        60.6900   51.7710   37.7280 N.pl3 283  ARG283     -0.0865
     49  CZ        59.5360   51.4190   37.1220 C.cat 283  ARG283      0.5346
     50  NH1       58.4800   52.2270   36.9360 N.pl3 283  ARG283      0.1354
     51  NH2       59.4290   50.1650   36.7030 N.pl3 283  ARG283      0.1354
     52  N         62.4600   56.4820   33.1100 N.3   285  ILE285     -0.1245
     53  CA        61.1830   55.9800   32.6440 C.3   285  ILE285      0.1561
     54  C         61.4010   55.1820   31.3510 C.2   285  ILE285      0.2260
     55  O         60.4460   54.5770   30.8440 O.2   285  ILE285     -0.2867
     56  CB        60.1040   57.0980   32.3880 C.3   285  ILE285      0.0252
     57  CG1       60.2980   57.7740   31.1020 C.3   285  ILE285      0.0019
     58  CG2       60.1530   58.1260   33.4910 C.3   285  ILE285      0.0019
     59  CD1       58.8840   58.0070   30.6100 C.3   285  ILE285      0.0001
     60  N         63.0980   51.8960   29.5830 N.3   287  ILE287     -0.1245
     61  CA        63.6170   50.5490   29.7620 C.3   287  ILE287      0.1561
     62  C         65.0480   50.3810   29.2530 C.2   287  ILE287      0.2260
     63  O         65.8440   49.6620   29.8480 O.2   287  ILE287     -0.2867
     64  CB        62.6260   49.5750   29.0160 C.3   287  ILE287      0.0252
     65  CG1       61.2650   49.6050   29.7070 C.3   287  ILE287      0.0019
     66  CG2       63.1370   48.1300   29.0360 C.3   287  ILE287      0.0019
     67  CD1       60.1040   49.0840   28.8230 C.3   287  ILE287      0.0001
     68  N         61.5870   59.3940   37.2850 N.3   294  GLU294     -0.1196
     69  CA        60.3760   59.4770   38.1000 C.3   294  GLU294      0.1783
     70  C         60.6460   58.8940   39.4840 C.2   294  GLU294      0.2306
     71  O         61.5980   58.1210   39.6810 O.2   294  GLU294     -0.2863
     72  CB        59.1880   58.7110   37.4670 C.2   294  GLU294      0.0071
     73  CG        59.2460   57.1740   37.4230 C.2   294  GLU294      0.0834
     74  CD        58.1840   56.4820   36.5800 C.2   294  GLU294      0.3877
     75  OE1       57.1170   57.0610   36.3440 O.co2 294  GLU294     -0.2406
     76  OE2       58.4500   55.3570   36.1590 O.co2 294  GLU294     -0.2406
     77  N         58.4800   57.0920   42.7220 N.3   296  LEU296     -0.1245
     78  CA        57.2580   56.3370   42.9080 C.3   296  LEU296      0.1561
     79  C         57.1520   55.8390   44.3370 C.2   296  LEU296      0.2260
     80  O         58.1630   55.4460   44.9460 O.2   296  LEU296     -0.2867
     81  CB        57.2360   55.1490   41.9560 C.3   296  LEU296      0.0270
     82  CG        57.1000   55.3820   40.4700 C.3   296  LEU296      0.0019
     83  CD1       57.4510   54.1270   39.7100 C.3   296  LEU296      0.0001
     84  CD2       55.6860   55.8230   40.1820 C.3   296  LEU296      0.0001
     85  N         53.8020   47.2730   44.1990 N.3   308  ARG308     -0.1231
     86  CA        53.4900   48.0860   43.0530 C.3   308  ARG308      0.1679
     87  C         53.1130   49.4900   43.5300 C.2   308  ARG308      0.2434
     88  O         52.6960   49.6110   44.6880 O.2   308  ARG308     -0.2733
     89  CB        52.3810   47.3450   42.3550 C.3   308  ARG308      0.0321
     90  CG        52.7710   46.9030   40.9750 C.3   308  ARG308      0.0489
     91  CD        53.9640   45.9650   40.8660 C.3   308  ARG308      0.2205
     92  NE        54.3270   45.8570   39.4510 N.pl3 308  ARG308     -0.0865
     93  CZ        54.0110   44.8070   38.6730 C.cat 308  ARG308      0.5346
     94  NH1       53.4600   43.6880   39.1560 N.pl3 308  ARG308      0.1354
     95  NH2       54.3120   44.8400   37.3780 N.pl3 308  ARG308      0.1354
     96  N         53.3140   50.5770   42.7600 N.am  309  PRO309     -0.2718
     97  CA        53.1690   51.9440   43.2480 C.3   309  PRO309      0.1535
     98  C         51.8170   52.5540   43.6150 C.2   309  PRO309      0.2599
     99  O         50.9100   52.6330   42.7870 O.2   309  PRO309     -0.2715
    100  CB        53.8920   52.7810   42.1960 C.3   309  PRO309      0.0310
    101  CG        53.8370   51.9550   40.9400 C.3   309  PRO309      0.0237
    102  CD        54.0580   50.5690   41.4930 C.3   309  PRO309      0.0939
    103  N         51.6860   53.0900   44.8320 N.am  310  THR310     -0.1937
    104  CA        50.4590   53.7440   45.3100 C.3   310  THR310      0.2028
    105  C         50.3660   55.2530   45.0230 C.2   310  THR310      0.2645
    106  O         49.2900   55.8270   45.1500 O.2   310  THR310     -0.2714
    107  CB        50.2900   53.5210   46.8560 C.3   310  THR310      0.1808
    108  OG1       51.5980   53.5500   47.4210 O.3   310  THR310     -0.2208
    109  CG2       49.5840   52.2060   47.1980 C.3   310  THR310      0.0379
    110  N         51.4500   55.9360   44.6420 N.am  311  GLN311     -0.1917
    111  CA        51.4680   57.3790   44.3810 C.3   311  GLN311      0.1949
    112  C         52.6530   57.6400   43.4380 C.2   311  GLN311      0.2659
    113  O         53.5340   56.7840   43.3830 O.2   311  GLN311     -0.2711
    114  CB        51.6620   58.1400   45.7110 C.2   311  GLN311      0.0091
    115  CG        51.3190   59.6340   45.6880 C.2   311  GLN311      0.0587
    116  CD        51.7480   60.4530   46.9080 C.2   311  GLN311      0.2841
    117  OE1       51.7530   59.9900   48.0360 O.2   311  GLN311     -0.2667
    118  NE2       52.1020   61.7180   46.8020 N.am  311  GLN311     -0.0837
    119  N         52.7860   58.7140   42.6720 N.am  312  GLY312     -0.1937
    120  CA        53.9890   58.9470   41.8920 C.3   312  GLY312      0.2014
    121  C         54.2560   60.4270   41.7240 C.2   312  GLY312      0.2639
    122  O         53.4820   61.2420   42.2420 O.2   312  GLY312     -0.2714
    123  N         55.3680   60.7920   41.0840 N.am  313  GLN313     -0.1963
    124  CA        55.7100   62.1640   40.7310 C.3   313  GLN313      0.1733
    125  C         56.8600   62.0510   39.7620 C.2   313  GLN313      0.2617
    126  O         57.8730   61.3860   40.0010 O.2   313  GLN313     -0.2715
    127  CB        56.2240   63.0220   41.8770 C.3   313  GLN313      0.0408
    128  CG        55.9090   64.4890   41.6310 C.3   313  GLN313      0.0908
    129  CD        56.8010   65.5260   42.2990 C.2   313  GLN313      0.2608
    130  OE1       57.7630   66.0350   41.7230 O.2   313  GLN313     -0.2717
    131  NE2       56.4880   65.9460   43.5090 N.am  313  GLN313     -0.0878
    132  N         56.6530   62.6470   38.6000 N.am  314  THR314     -0.1951
    133  CA        57.6010   62.6680   37.4950 C.3   314  THR314      0.1897
    134  C         58.5070   63.9000   37.5770 C.2   314  THR314      0.2313
    135  O         58.0270   65.0150   37.8020 O.2   314  THR314     -0.2863
    136  CB        56.7890   62.6710   36.2030 C.3   314  THR314      0.1794
    137  OG1       55.7350   61.7020   36.3320 O.3   314  THR314     -0.2208
    138  CG2       57.7060   62.4260   35.0100 C.3   314  THR314      0.0378
    139  N         50.9580   68.0880   49.4100 N.3   372  PHE372     -0.1227
    140  CA        50.9230   67.3430   48.1600 C.3   372  PHE372      0.1736
    141  C         51.1440   68.3250   47.0180 C.2   372  PHE372      0.2595
    142  O         50.2030   68.6380   46.2910 O.2   372  PHE372     -0.2718
    143  CB        49.5670   66.6390   48.0690 C.3   372  PHE372      0.0547
    144  CG        49.5060   65.4810   49.0460 C.ar  372  PHE372     -0.0202
    145  CD1       49.2210   65.7140   50.3700 C.ar  372  PHE372     -0.0042
    146  CD2       49.7810   64.1950   48.6110 C.ar  372  PHE372     -0.0042
    147  CE1       49.2190   64.6580   51.2520 C.ar  372  PHE372     -0.0003
    148  CE2       49.7730   63.1500   49.5050 C.ar  372  PHE372     -0.0003
    149  CZ        49.4940   63.3830   50.8270 C.ar  372  PHE372     -0.0000
    150  N         52.3780   68.8340   46.8740 N.am  373  LEU373     -0.1966
    151  CA        52.7120   69.8810   45.9160 C.3   373  LEU373      0.1728
    152  C         52.5280   69.4340   44.4940 C.2   373  LEU373      0.2617
    153  O         52.7130   68.2560   44.2190 O.2   373  LEU373     -0.2715
    154  CB        54.1560   70.3160   46.0740 C.3   373  LEU373      0.0311
    155  CG        54.6540   70.8900   47.3800 C.3   373  LEU373      0.0022
    156  CD1       55.9370   71.6380   47.0850 C.3   373  LEU373      0.0001
    157  CD2       53.6550   71.8760   47.9760 C.3   373  LEU373      0.0001
    158  N         52.2220   70.3290   43.5820 N.am  374  GLY374     -0.1940
    159  CA        52.0320   69.9480   42.2060 C.3   374  GLY374      0.2014
    160  C         53.3480   69.6250   41.5300 C.2   374  GLY374      0.2638
    161  O         54.3940   70.1720   41.8290 O.2   374  GLY374     -0.2714
    162  N         53.2910   68.7440   40.5690 N.am  375  GLN375     -0.1977
    163  CA        54.4260   68.2800   39.8060 C.3   375  GLN375      0.1601
    164  C         54.8190   69.1980   38.6470 C.2   375  GLN375      0.2287
    165  O         53.9050   69.8060   38.0720 O.2   375  GLN375     -0.2864
    166  CB        53.9810   66.9250   39.3640 C.3   375  GLN375      0.0394
    167  CG        54.7130   66.1290   38.3140 C.3   375  GLN375      0.0908
    168  CD        53.9040   64.8820   38.0420 C.2   375  GLN375      0.2608
    169  OE1       53.8120   63.9660   38.8500 O.2   375  GLN375     -0.2717
    170  NE2       53.2070   64.7840   36.9380 N.am  375  GLN375     -0.0878
@<TRIPOS>BOND
     1    32    30   am
     2    67    65    1
     3    64    66    1
     4    64    65    1
     5    64    61    1
     6    62    61    1
     7    62    63    2
     8    30    31    2
     9    30    29    1
    10    60    61    1
    11    59    57    1
    12    17    16    2
    13    29    26    1
    14    55    54    2
    15    57    56    1
    16    54    53    1
    17    25    26    1
    18    26    27    1
    19    16    15    1
    20    14    15    1
    21    56    53    1
    22    56    58    1
    23    53    52    1
    24    15    18    1
    25    27    28    2
    26    27    33   am
    27    19    18    1
    28    19    20    1
    29    33    34    1
    30    24    22    1
    31    22    21    2
    32    22    23    1
    33    21    20    1
    34   138   136    1
    35    36    35    2
    36    34    35    1
    37    34    37    1
    38    37    38    1
    39    76    74   ar
    40   136   137    1
    41   136   133    1
    42    75    74   ar
    43    38    39   ar
    44    38    40   ar
    45    74    73    1
    46    51    49    1
    47    43    44    2
    48    43    42    1
    49    50    49    1
    50   170   168   am
    51    49    48    2
    52    68    69    1
    53    95    93    1
    54    73    72    2
    55    46    45    1
    56    46    47    1
    57    72    69    1
    58   133   134    1
    59   133   132    1
    60   134   135    2
    61    48    47    1
    62    45    42    1
    63   168   167    1
    64   168   169    2
    65   165   164    2
    66    69    70    1
    67    42    41    1
    68   167   166    1
    69   132   125   am
    70   164   163    1
    71    93    94    1
    72    93    92    2
    73   166   163    1
    74    92    91    1
    75    70    71    2
    76    83    82    1
    77   125   126    2
    78   125   124    1
    79   163   162    1
    80     9     8    1
    81     9    10    2
    82    12    11    1
    83    84    82    1
    84     8     7    1
    85     8    11    1
    86    82    81    1
    87   162   160   am
    88   124   123    1
    89   124   127    1
    90    91    90    1
    91   101   102    1
    92   101   100    1
    93    90    89    1
    94    11    13    1
    95   123   121   am
    96   102    96    1
    97   160   161    2
    98   160   159    1
    99   128   127    1
   100   128   129    1
   101   130   129    2
   102   121   120    1
   103   121   122    2
   104   120   119    1
   105    81    78    1
   106   100    97    1
   107   159   158    1
   108   129   131   am
   109    89    86    1
   110   119   112   am
   111    77    78    1
   112    96    97    1
   113    96    87   am
   114    99    98    2
   115    78    79    1
   116    86    87    1
   117    86    85    1
   118    97    98    1
   119   113   112    2
   120   112   111    1
   121    87    88    2
   122   158   152   am
   123    98   103   am
   124   153   152    2
   125    79    80    2
   126   111   110    1
   127   111   114    1
   128   152   151    1
   129   110   105   am
   130   103   104    1
   131   105   106    2
   132   105   104    1
   133   104   107    1
   134   115   114    2
   135   115   116    1
   136   151   154    1
   137   151   150    1
   138   154   155    1
   139     6     5    1
   140   142   141    2
   141   118   116   am
   142   107   109    1
   143   107   108    1
   144   150   141   am
   145   116   117    2
   146   141   140    1
   147   156   155    1
   148   155   157    1
   149     5     2    1
   150     2     3    1
   151     2     1    1
   152     3     4    2
   153   143   140    1
   154   143   144    1
   155   140   139    1
   156   146   144   ar
   157   146   148   ar
   158   144   145   ar
   159   148   149   ar
   160   145   147   ar
   161   149   147   ar
