@<TRIPOS>MOLECULE
tmp/1nmbA00.pdb
 162 154 0 0 0
SMALL
GASTEIGER

@<TRIPOS>ATOM
      1  N         58.2560   45.6690   40.1050 N.3   241  VAL241     -0.1245
      2  CA        58.3430   46.9490   39.4200 C.3   241  VAL241      0.1561
      3  C         59.8530   47.0450   39.2960 C.2   241  VAL241      0.2260
      4  O         60.5440   47.3790   40.2680 O.2   241  VAL241     -0.2867
      5  CB        57.8040   48.1260   40.2580 C.3   241  VAL241      0.0252
      6  CG1       57.9810   49.4190   39.4610 C.3   241  VAL241      0.0019
      7  CG2       56.3220   47.9110   40.6120 C.3   241  VAL241      0.0019
      8  N         65.9340   46.8400   31.0610 N.3   247  ARG247     -0.1245
      9  CA        65.1430   45.9650   31.9010 C.3   247  ARG247      0.1563
     10  C         63.9460   45.3860   31.1480 C.2   247  ARG247      0.2260
     11  O         63.3670   46.0500   30.2680 O.2   247  ARG247     -0.2867
     12  CB        64.6550   46.7240   33.1310 C.3   247  ARG247      0.0307
     13  CG        63.6350   47.8370   32.8590 C.3   247  ARG247      0.0489
     14  CD        63.0190   48.3210   34.1710 C.3   247  ARG247      0.2205
     15  NE        61.8810   49.2150   33.9650 N.pl3 247  ARG247     -0.0865
     16  CZ        61.9830   50.4910   33.5820 C.cat 247  ARG247      0.5346
     17  NH1       63.1810   51.0350   33.3440 N.pl3 247  ARG247      0.1354
     18  NH2       60.8880   51.2300   33.4220 N.pl3 247  ARG247      0.1354
     19  N         60.0650   43.9970   30.6730 N.3   249  ASN249     -0.1225
     20  CA        58.8210   44.6070   31.1130 C.3   249  ASN249      0.1785
     21  C         58.4460   44.0830   32.5250 C.2   249  ASN249      0.2597
     22  O         58.9150   43.0170   32.9550 O.2   249  ASN249     -0.2718
     23  CB        57.6990   44.3260   30.1070 C.3   249  ASN249      0.1169
     24  CG        57.8490   45.1080   28.8170 C.2   249  ASN249      0.2627
     25  OD1       57.8550   46.3390   28.8290 O.2   249  ASN249     -0.2716
     26  ND2       57.9370   44.4000   27.6900 N.am  249  ASN249     -0.0877
     27  N         57.5650   44.8100   33.2110 N.am  250  ASP250     -0.1974
     28  CA        57.1350   44.4760   34.5700 C.3   250  ASP250      0.1709
     29  C         56.3890   43.1490   34.7280 C.2   250  ASP250      0.2293
     30  O         55.4780   42.8300   33.9720 O.2   250  ASP250     -0.2864
     31  CB        56.2480   45.6000   35.1560 C.3   250  ASP250      0.1436
     32  CG        57.0500   46.8030   35.7220 C.2   250  ASP250      0.3671
     33  OD1       58.2860   46.7490   35.9060 O.co2 250  ASP250     -0.2456
     34  OD2       56.4100   47.8270   36.0200 O.co2 250  ASP250     -0.2456
     35  N         62.9090   55.2970   38.6220 N.3   283  ARG283     -0.1245
     36  CA        63.3350   54.4850   37.5210 C.3   283  ARG283      0.1563
     37  C         63.1620   55.2550   36.2400 C.2   283  ARG283      0.2260
     38  O         62.4770   56.2830   36.2310 O.2   283  ARG283     -0.2867
     39  CB        62.5420   53.1730   37.4870 C.3   283  ARG283      0.0307
     40  CG        61.0370   53.2720   37.2370 C.3   283  ARG283      0.0489
     41  CD        60.4650   51.8560   37.0760 C.3   283  ARG283      0.2205
     42  NE        59.0040   51.8130   37.0840 N.pl3 283  ARG283     -0.0865
     43  CZ        58.2800   50.9580   36.3670 C.cat 283  ARG283      0.5346
     44  NH1       58.8750   50.0520   35.6080 N.pl3 283  ARG283      0.1354
     45  NH2       56.9560   50.9890   36.4200 N.pl3 283  ARG283      0.1354
     46  N         61.9500   55.8190   32.3240 N.3   285  ILE285     -0.1245
     47  CA        60.7010   55.4940   31.7160 C.3   285  ILE285      0.1561
     48  C         60.8470   54.4350   30.6430 C.2   285  ILE285      0.2260
     49  O         60.0490   53.5010   30.5770 O.2   285  ILE285     -0.2867
     50  CB        59.9530   56.7580   31.2690 C.3   285  ILE285      0.0252
     51  CG1       59.5840   57.5710   32.5170 C.3   285  ILE285      0.0019
     52  CG2       58.7090   56.3820   30.5570 C.3   285  ILE285      0.0019
     53  CD1       58.8070   58.8100   32.2450 C.3   285  ILE285      0.0001
     54  N         62.2140   51.1420   28.8730 N.3   287  ILE287     -0.1245
     55  CA        62.7670   49.9020   29.3770 C.3   287  ILE287      0.1561
     56  C         64.1310   49.6170   28.6780 C.2   287  ILE287      0.2260
     57  O         64.9540   48.8350   29.1710 O.2   287  ILE287     -0.2867
     58  CB        61.8030   48.7030   29.1760 C.3   287  ILE287      0.0252
     59  CG1       61.2880   48.6790   27.7590 C.3   287  ILE287      0.0019
     60  CG2       60.6920   48.7320   30.1930 C.3   287  ILE287      0.0019
     61  CD1       61.3300   47.3020   27.1960 C.3   287  ILE287      0.0001
     62  N         60.8780   58.6140   36.5180 N.3   294  GLU294     -0.1245
     63  CA        59.6690   58.6210   37.3040 C.3   294  GLU294      0.1567
     64  C         59.8580   58.1530   38.7260 C.2   294  GLU294      0.2260
     65  O         60.8400   57.4820   39.0710 O.2   294  GLU294     -0.2867
     66  CB        58.5510   57.7950   36.6240 C.3   294  GLU294      0.0388
     67  CG        58.8760   56.3060   36.3790 C.3   294  GLU294      0.1160
     68  CD        57.7250   55.4990   35.7110 C.2   294  GLU294      0.3649
     69  OE1       56.8130   56.0910   35.0570 O.co2 294  GLU294     -0.2457
     70  OE2       57.7760   54.2470   35.8420 O.co2 294  GLU294     -0.2457
     71  N         57.6090   56.4530   41.9600 N.3   296  LEU296     -0.1245
     72  CA        56.3800   55.7230   42.2150 C.3   296  LEU296      0.1561
     73  C         56.3120   55.2130   43.6360 C.2   296  LEU296      0.2260
     74  O         57.3070   54.7430   44.1970 O.2   296  LEU296     -0.2867
     75  CB        56.2770   54.5230   41.2990 C.3   296  LEU296      0.0270
     76  CG        56.4080   54.6320   39.8030 C.3   296  LEU296      0.0019
     77  CD1       57.0460   53.3490   39.3190 C.3   296  LEU296      0.0001
     78  CD2       55.0250   54.8180   39.1870 C.3   296  LEU296      0.0001
     79  N         52.7040   46.6270   43.7510 N.3   308  LYS308     -0.1231
     80  CA        52.5440   47.4620   42.5760 C.3   308  LYS308      0.1678
     81  C         52.2880   48.9430   42.9990 C.2   308  LYS308      0.2434
     82  O         51.8720   49.2220   44.1230 O.2   308  LYS308     -0.2733
     83  CB        51.4790   46.8510   41.6740 C.3   308  LYS308      0.0284
     84  CG        51.9730   45.6170   40.9200 C.3   308  LYS308      0.0035
     85  CD        52.9140   45.9680   39.7590 C.3   308  LYS308      0.0206
     86  CE        53.4220   44.7350   38.9490 C.3   308  LYS308      0.1093
     87  NZ        52.7780   44.5320   37.5930 N.3   308  LYS308     -0.1314
     88  N         52.6080   49.9060   42.1200 N.am  309  PRO309     -0.2718
     89  CA        52.4340   51.3320   42.4230 C.3   309  PRO309      0.1535
     90  C         51.0420   51.7300   42.8670 C.2   309  PRO309      0.2599
     91  O         50.0640   51.2090   42.3380 O.2   309  PRO309     -0.2715
     92  CB        52.7900   52.0150   41.0980 C.3   309  PRO309      0.0310
     93  CG        53.6570   50.9770   40.3860 C.3   309  PRO309      0.0237
     94  CD        52.9330   49.7170   40.6980 C.3   309  PRO309      0.0939
     95  N         50.9700   52.6540   43.8260 N.am  310  THR310     -0.1937
     96  CA        49.7050   53.1720   44.3350 C.3   310  THR310      0.2028
     97  C         49.6070   54.6980   44.1160 C.2   310  THR310      0.2642
     98  O         48.5350   55.2920   44.2900 O.2   310  THR310     -0.2714
     99  CB        49.4940   52.8600   45.8280 C.3   310  THR310      0.1808
    100  OG1       50.5500   53.4380   46.6010 O.3   310  THR310     -0.2208
    101  CG2       49.4420   51.3630   46.0630 C.3   310  THR310      0.0379
    102  N         50.7370   55.3140   43.7590 N.am  311  GLN311     -0.1963
    103  CA        50.8200   56.7460   43.4660 C.3   311  GLN311      0.1733
    104  C         51.9890   56.9110   42.5140 C.2   311  GLN311      0.2617
    105  O         52.7920   55.9980   42.3740 O.2   311  GLN311     -0.2715
    106  CB        51.0680   57.5720   44.7350 C.3   311  GLN311      0.0408
    107  CG        50.7410   59.0630   44.5640 C.3   311  GLN311      0.0908
    108  CD        51.0110   59.8660   45.8130 C.2   311  GLN311      0.2608
    109  OE1       50.9080   59.3520   46.9280 O.2   311  GLN311     -0.2717
    110  NE2       51.3550   61.1290   45.6410 N.am  311  GLN311     -0.0878
    111  N         52.1010   58.0580   41.8660 N.am  312  GLY312     -0.1940
    112  CA        53.2170   58.2580   40.9630 C.3   312  GLY312      0.2014
    113  C         53.5720   59.7180   40.8410 C.2   312  GLY312      0.2639
    114  O         53.0360   60.5410   41.5750 O.2   312  GLY312     -0.2714
    115  N         54.5560   60.0170   39.9950 N.am  313  GLN313     -0.1963
    116  CA        54.9930   61.3840   39.6880 C.3   313  GLN313      0.1733
    117  C         56.0870   61.3240   38.6560 C.2   313  GLN313      0.2617
    118  O         57.0970   60.6560   38.8380 O.2   313  GLN313     -0.2715
    119  CB        55.4610   62.2170   40.9040 C.3   313  GLN313      0.0408
    120  CG        55.5520   63.7210   40.4930 C.3   313  GLN313      0.0908
    121  CD        55.9830   64.6900   41.5950 C.2   313  GLN313      0.2608
    122  OE1       56.8760   65.5520   41.4000 O.2   313  GLN313     -0.2717
    123  NE2       55.3320   64.5910   42.7440 N.am  313  GLN313     -0.0878
    124  N         55.8020   61.8930   37.4990 N.am  314  THR314     -0.1951
    125  CA        56.7780   61.9370   36.4400 C.3   314  THR314      0.1897
    126  C         57.7720   63.0850   36.7770 C.2   314  THR314      0.2313
    127  O         57.4970   63.9350   37.6390 O.2   314  THR314     -0.2863
    128  CB        56.0740   62.1520   35.0930 C.3   314  THR314      0.1794
    129  OG1       55.1110   61.0930   34.9050 O.3   314  THR314     -0.2208
    130  CG2       57.1120   62.2030   33.9090 C.3   314  THR314      0.0378
    131  N         50.3280   67.2300   48.5210 N.3   372  PHE372     -0.1227
    132  CA        50.1660   66.4840   47.2890 C.3   372  PHE372      0.1736
    133  C         50.2740   67.4060   46.0810 C.2   372  PHE372      0.2595
    134  O         49.3570   67.4880   45.2600 O.2   372  PHE372     -0.2718
    135  CB        48.8410   65.7340   47.3310 C.3   372  PHE372      0.0547
    136  CG        48.7670   64.7210   48.4440 C.ar  372  PHE372     -0.0202
    137  CD1       48.7420   65.1300   49.7650 C.ar  372  PHE372     -0.0042
    138  CD2       48.7680   63.3630   48.1600 C.ar  372  PHE372     -0.0042
    139  CE1       48.7150   64.1980   50.7860 C.ar  372  PHE372     -0.0003
    140  CE2       48.7400   62.4250   49.1580 C.ar  372  PHE372     -0.0003
    141  CZ        48.7170   62.8300   50.4750 C.ar  372  PHE372     -0.0000
    142  N         51.4350   68.0610   45.9830 N.am  373  LEU373     -0.1966
    143  CA        51.7840   69.0090   44.9300 C.3   373  LEU373      0.1728
    144  C         51.5440   68.4800   43.5530 C.2   373  LEU373      0.2617
    145  O         51.6370   67.2540   43.3270 O.2   373  LEU373     -0.2715
    146  CB        53.2560   69.4120   45.0460 C.3   373  LEU373      0.0311
    147  CG        53.6410   70.0030   46.4130 C.3   373  LEU373      0.0022
    148  CD1       55.1490   70.2390   46.5480 C.3   373  LEU373      0.0001
    149  CD2       52.8680   71.3000   46.6470 C.3   373  LEU373      0.0001
    150  N         51.2930   69.4140   42.6330 N.am  374  GLY374     -0.1940
    151  CA        51.0470   69.0950   41.2330 C.3   374  GLY374      0.2014
    152  C         52.3730   68.8560   40.5510 C.2   374  GLY374      0.2638
    153  O         53.3810   69.4430   40.9440 O.2   374  GLY374     -0.2714
    154  N         52.3800   68.0760   39.4870 N.am  375  GLN375     -0.1977
    155  CA        53.6350   67.7620   38.8410 C.3   375  GLN375      0.1601
    156  C         53.9940   68.5600   37.6130 C.2   375  GLN375      0.2287
    157  O         53.1250   68.9310   36.8160 O.2   375  GLN375     -0.2864
    158  CB        53.6930   66.2670   38.4930 C.3   375  GLN375      0.0394
    159  CG        52.7630   65.8640   37.3800 C.3   375  GLN375      0.0908
    160  CD        52.7320   64.3790   37.1640 C.2   375  GLN375      0.2608
    161  OE1       52.0910   63.6510   37.9120 O.2   375  GLN375     -0.2717
    162  NE2       53.4260   63.9160   36.1380 N.am  375  GLN375     -0.0878
@<TRIPOS>BOND
     1    61    59    1
     2    26    24   am
     3    59    58    1
     4    56    57    2
     5    56    55    1
     6    24    25    2
     7    24    23    1
     8    54    55    1
     9    58    55    1
    10    58    60    1
    11    23    20    1
    12    11    10    2
    13    52    50    1
    14    49    48    2
    15    48    47    1
    16    19    20    1
    17     8     9    1
    18    20    21    1
    19    10     9    1
    20    50    47    1
    21    50    51    1
    22    47    46    1
    23     9    12    1
    24    53    51    1
    25    21    22    2
    26    21    27   am
    27    13    12    1
    28    13    14    1
    29    27    28    1
    30    17    16    1
    31    18    16    1
    32    16    15    2
    33   130   128    1
    34    15    14    1
    35    30    29    2
    36    28    29    1
    37    28    31    1
    38   129   128    1
    39    69    68   ar
    40   128   125    1
    41    31    32    1
    42    44    43    1
    43    68    70   ar
    44    68    67    1
    45    32    33   ar
    46    32    34   ar
    47   162   160   am
    48    38    37    2
    49    37    36    1
    50    43    45    1
    51    43    42    2
    52    67    66    1
    53   125   126    1
    54   125   124    1
    55    62    63    1
    56    66    63    1
    57   126   127    2
    58   157   156    2
    59    41    42    1
    60    41    40    1
    61   160   159    1
    62   160   161    2
    63    40    39    1
    64    63    64    1
    65   159   158    1
    66    39    36    1
    67   124   117   am
    68    36    35    1
    69    87    86    1
    70   156   155    1
    71   158   155    1
    72   117   118    2
    73   117   116    1
    74    64    65    2
    75   155   154    1
    76    86    85    1
    77    78    76    1
    78     3     2    1
    79     3     4    2
    80    77    76    1
    81     2     1    1
    82     2     5    1
    83     6     5    1
    84   154   152   am
    85   116   115    1
    86   116   119    1
    87    85    84    1
    88    76    75    1
    89   115   113   am
    90     5     7    1
    91    93    94    1
    92    93    92    1
    93   120   119    1
    94   120   121    1
    95   152   153    2
    96   152   151    1
    97    94    88    1
    98   113   112    1
    99   113   114    2
   100    84    83    1
   101   112   111    1
   102    92    89    1
   103   151   150    1
   104    75    72    1
   105   122   121    2
   106   121   123   am
   107    83    80    1
   108   111   104   am
   109    71    72    1
   110    88    89    1
   111    88    81   am
   112    72    73    1
   113    91    90    2
   114   105   104    2
   115    89    90    1
   116   104   103    1
   117    80    81    1
   118    80    79    1
   119   150   144   am
   120    90    95   am
   121    81    82    2
   122   145   144    2
   123   103   102    1
   124   103   106    1
   125   144   143    1
   126    73    74    2
   127   102    97   am
   128    95    96    1
   129    97    98    2
   130    97    96    1
   131    96    99    1
   132   107   106    1
   133   107   108    1
   134   143   146    1
   135   143   142    1
   136   146   147    1
   137   134   133    2
   138   110   108   am
   139   108   109    2
   140    99   101    1
   141    99   100    1
   142   142   133   am
   143   133   132    1
   144   147   148    1
   145   147   149    1
   146   132   135    1
   147   132   131    1
   148   135   136    1
   149   138   136   ar
   150   138   140   ar
   151   136   137   ar
   152   140   141   ar
   153   137   139   ar
   154   141   139   ar
