@<TRIPOS>MOLECULE
tmp/1nmeB01.pdb
 97 99 0 0 0
SMALL
GASTEIGER

@<TRIPOS>ATOM
      1  N         40.9910   93.1600   11.8840 N.3    19  TYR19      -0.1241
      2  CA        40.5300   93.2570   13.2570 C.3    19  TYR19       0.1605
      3  C         40.0820   94.6950   13.5070 C.2    19  TYR19       0.2264
      4  O         40.4950   95.6050   12.7980 O.2    19  TYR19      -0.2867
      5  CB        41.7450   92.9700   14.1410 C.3    19  TYR19       0.0534
      6  CG        41.5390   92.6240   15.6080 C.ar   19  TYR19      -0.0201
      7  CD1       41.0630   91.3640   16.0000 C.ar   19  TYR19      -0.0009
      8  CD2       41.9510   93.5060   16.6130 C.ar   19  TYR19      -0.0009
      9  CE1       40.9410   91.0210   17.3620 C.ar   19  TYR19       0.0417
     10  CE2       41.8260   93.1720   17.9730 C.ar   19  TYR19       0.0417
     11  CZ        41.3440   91.9220   18.3350 C.ar   19  TYR19       0.1957
     12  OH        41.2340   91.5930   19.6740 O.3    19  TYR19      -0.2866
     13  N         39.5350   97.3960   16.8600 N.3    21  TRP21      -0.1227
     14  CA        39.8670   97.5730   18.2750 C.3    21  TRP21       0.1737
     15  C         38.8160   98.3030   19.1040 C.2    21  TRP21       0.2595
     16  O         38.2070   99.2860   18.6520 O.2    21  TRP21      -0.2718
     17  CB        41.2030   98.3020   18.3700 C.3    21  TRP21       0.0564
     18  CG        42.3380   97.4490   17.9720 C.ar   21  TRP21       0.0003
     19  CD1       42.9190   97.3640   16.7420 C.ar   21  TRP21       0.0946
     20  CD2       43.0380   96.5310   18.8120 C.ar   21  TRP21       0.0152
     21  NE1       43.9490   96.4510   16.7640 N.ar   21  TRP21      -0.2442
     22  CE2       44.0440   95.9280   18.0290 C.ar   21  TRP21       0.0810
     23  CE3       42.9190   96.1650   20.1610 C.ar   21  TRP21       0.0012
     24  CZ2       44.9300   94.9720   18.5500 C.ar   21  TRP21       0.0191
     25  CZ3       43.7890   95.2120   20.6750 C.ar   21  TRP21       0.0001
     26  CH2       44.7820   94.6300   19.8720 C.ar   21  TRP21       0.0015
     27  N         38.6240   97.8140   20.3330 N.am   22  ARG22      -0.1966
     28  CA        37.6760   98.3770   21.2770 C.3    22  ARG22       0.1729
     29  C         38.2910   98.3340   22.6650 C.2    22  ARG22       0.2616
     30  O         38.8910   97.3350   23.0780 O.2    22  ARG22      -0.2715
     31  CB        36.3630   97.5850   21.2110 C.3    22  ARG22       0.0348
     32  CG        35.3400   97.8870   22.2970 C.3    22  ARG22       0.0492
     33  CD        34.0680   97.0440   22.2040 C.3    22  ARG22       0.2205
     34  NE        34.3320   95.6550   21.8190 N.pl3  22  ARG22      -0.0865
     35  CZ        34.7470   94.7060   22.6500 C.cat  22  ARG22       0.5346
     36  NH1       34.9840   93.4820   22.1930 N.pl3  22  ARG22       0.1354
     37  NH2       34.9870   94.9850   23.9280 N.pl3  22  ARG22       0.1354
     38  N         38.1420   99.4490   23.3640 N.am   23  ASN23      -0.1958
     39  CA        38.6790   99.6340   24.7000 C.3    23  ASN23       0.1819
     40  C         37.5290   99.5210   25.7040 C.2    23  ASN23       0.2622
     41  O         36.4320  100.0580   25.4870 O.2    23  ASN23      -0.2715
     42  CB        39.3860  100.9980   24.7480 C.3    23  ASN23       0.1195
     43  CG        39.8720  101.3650   26.1150 C.2    23  ASN23       0.2630
     44  OD1       39.0920  101.7750   26.9720 O.2    23  ASN23      -0.2716
     45  ND2       41.1800  101.2680   26.3230 N.am   23  ASN23      -0.0877
     46  N         37.7820   98.7990   26.7920 N.am   24  SER24      -0.1950
     47  CA        36.7850   98.5500   27.8270 C.3    24  SER24       0.1924
     48  C         36.1690   99.8230   28.4060 C.2    24  SER24       0.2314
     49  O         34.9810   99.8430   28.7190 O.2    24  SER24      -0.2863
     50  CB        37.3960   97.7130   28.9620 C.3    24  SER24       0.2116
     51  OG        38.1740   96.6430   28.4460 O.3    24  SER24      -0.2180
     52  N         37.8440  102.4940   19.0460 N.3    29  TRP29      -0.1241
     53  CA        38.6570  103.5670   18.4770 C.3    29  TRP29       0.1605
     54  C         37.8390  104.3370   17.4290 C.2    29  TRP29       0.2264
     55  O         37.8220  105.5710   17.4000 O.2    29  TRP29      -0.2867
     56  CB        39.8580  102.9510   17.7750 C.3    29  TRP29       0.0550
     57  CG        40.8410  102.2550   18.6990 C.ar   29  TRP29       0.0003
     58  CD1       40.7300  102.0680   20.0620 C.ar   29  TRP29       0.0946
     59  CD2       42.0760  101.6510   18.3110 C.ar   29  TRP29       0.0152
     60  NE1       41.8340  101.3950   20.5330 N.ar   29  TRP29      -0.2442
     61  CE2       42.6760  101.1250   19.4830 C.ar   29  TRP29       0.0810
     62  CE3       42.7510  101.5070   17.0890 C.ar   29  TRP29       0.0012
     63  CZ2       43.9200  100.4740   19.4700 C.ar   29  TRP29       0.0191
     64  CZ3       43.9870  100.8550   17.0740 C.ar   29  TRP29       0.0001
     65  CH2       44.5520  100.3360   18.2650 C.ar   29  TRP29       0.0015
     66  N         47.1180  103.1550   19.1820 N.3    63  GLU63      -0.1231
     67  CA        47.9860  101.9950   18.9800 C.3    63  GLU63       0.1699
     68  C         47.7220  101.0190   20.1270 C.2    63  GLU63       0.2593
     69  O         47.5780  101.4510   21.2670 O.2    63  GLU63      -0.2718
     70  CB        49.4560  102.4090   18.9300 C.3    63  GLU63       0.0402
     71  CG        50.3970  101.2370   18.6960 C.3    63  GLU63       0.1161
     72  CD        51.8420  101.6720   18.6520 C.2    63  GLU63       0.3649
     73  OE1       52.1470  102.6550   17.9370 O.co2  63  GLU63      -0.2457
     74  OE2       52.6660  101.0130   19.3100 O.co2  63  GLU63      -0.2457
     75  N         47.6280   99.7190   19.8350 N.am   64  SER64      -0.1938
     76  CA        47.3410   98.7630   20.9140 C.3    64  SER64       0.2055
     77  C         48.5550   98.5000   21.8030 C.2    64  SER64       0.2643
     78  O         49.7150   98.6190   21.3780 O.2    64  SER64      -0.2714
     79  CB        46.7980   97.4310   20.3780 C.3    64  SER64       0.2130
     80  OG        47.8290   96.6750   19.7610 O.3    64  SER64      -0.2179
     81  N         48.2580   98.1550   23.0500 N.am   65  PHE65      -0.1959
     82  CA        49.2710   97.7010   23.9920 C.3    65  PHE65       0.1771
     83  C         48.7420   96.3810   24.5270 C.2    65  PHE65       0.2620
     84  O         47.6140   96.3180   25.0290 O.2    65  PHE65      -0.2715
     85  CB        49.4010   98.6900   25.1470 C.3    65  PHE65       0.0574
     86  CG        50.3790   98.2410   26.2020 C.ar   65  PHE65      -0.0200
     87  CD1       49.9430   97.5180   27.3120 C.ar   65  PHE65      -0.0042
     88  CD2       51.7270   98.5220   26.0680 C.ar   65  PHE65      -0.0042
     89  CE1       50.8530   97.0760   28.2850 C.ar   65  PHE65      -0.0003
     90  CE2       52.6510   98.0890   27.0410 C.ar   65  PHE65      -0.0003
     91  CZ        52.2060   97.3570   28.1420 C.ar   65  PHE65      -0.0000
     92  N         49.5470   95.3250   24.4330 N.am   66  SER66      -0.1950
     93  CA        49.1180   94.0100   24.8840 C.3    66  SER66       0.1924
     94  C         50.2710   93.2280   25.4530 C.2    66  SER66       0.2314
     95  O         51.3880   93.3150   24.9430 O.2    66  SER66      -0.2863
     96  CB        48.5640   93.2170   23.7050 C.3    66  SER66       0.2116
     97  OG        48.0330   91.9790   24.1440 O.3    66  SER66      -0.2180
@<TRIPOS>BOND
     1     1     2    1
     2     4     3    2
     3     2     3    1
     4     2     5    1
     5     5     6    1
     6     6     7   ar
     7     6     8   ar
     8     7     9   ar
     9     8    10   ar
    10    19    21   ar
    11    19    18   ar
    12    21    22   ar
    13    13    14    1
    14    64    62   ar
    15    64    65   ar
    16    62    59   ar
    17     9    11   ar
    18    55    54    2
    19    54    53    1
    20    56    53    1
    21    56    57    1
    22    73    72   ar
    23    18    17    1
    24    18    20   ar
    25    10    11   ar
    26    22    24   ar
    27    22    20   ar
    28    65    63   ar
    29    14    17    1
    30    14    15    1
    31    59    57   ar
    32    59    61   ar
    33    11    12    1
    34    53    52    1
    35    24    26   ar
    36    16    15    2
    37    72    71    1
    38    72    74   ar
    39    71    70    1
    40    57    58   ar
    41    20    23   ar
    42    70    67    1
    43    67    66    1
    44    67    68    1
    45    15    27   am
    46    63    61   ar
    47    61    60   ar
    48    80    79    1
    49    75    68   am
    50    75    76    1
    51    26    25   ar
    52    58    60   ar
    53    68    69    2
    54    23    25   ar
    55    27    28    1
    56    79    76    1
    57    76    77    1
    58    31    28    1
    59    31    32    1
    60    28    29    1
    61    78    77    2
    62    77    81   am
    63    34    33    1
    64    34    35    2
    65    36    35    1
    66    33    32    1
    67    35    37    1
    68    29    30    2
    69    29    38   am
    70    81    82    1
    71    38    39    1
    72    96    97    1
    73    96    93    1
    74    82    83    1
    75    82    85    1
    76    92    83   am
    77    92    93    1
    78    83    84    2
    79    39    42    1
    80    39    40    1
    81    42    43    1
    82    93    94    1
    83    95    94    2
    84    85    86    1
    85    41    40    2
    86    40    46   am
    87    88    86   ar
    88    88    90   ar
    89    43    45   am
    90    43    44    2
    91    86    87   ar
    92    46    47    1
    93    90    91   ar
    94    87    89   ar
    95    47    48    1
    96    47    50    1
    97    91    89   ar
    98    48    49    2
    99    51    50    1
