@<TRIPOS>MOLECULE
tmp/1nmkB00.pdb
 170 162 0 0 0
SMALL
GASTEIGER

@<TRIPOS>ATOM
      1  N         22.1610    8.0440   58.3530 N.3    55  ARG55      -0.1245
      2  CA        22.8290    8.5780   57.1720 C.3    55  ARG55       0.1563
      3  C         21.8180    8.8000   56.0610 C.2    55  ARG55       0.2260
      4  O         21.1580    7.8400   55.6230 O.2    55  ARG55      -0.2867
      5  CB        23.9440    7.6230   56.7350 C.3    55  ARG55       0.0307
      6  CG        24.8050    8.0940   55.5800 C.3    55  ARG55       0.0489
      7  CD        25.9200    7.1290   55.2000 C.3    55  ARG55       0.2205
      8  NE        26.8220    6.8130   56.3080 N.pl3  55  ARG55      -0.0865
      9  CZ        27.3450    5.6110   56.5350 C.cat  55  ARG55       0.5346
     10  NH1       28.1640    5.4330   57.5570 N.pl3  55  ARG55       0.1354
     11  NH2       27.0480    4.5750   55.7590 N.pl3  55  ARG55       0.1354
     12  N         21.5770   10.8260   52.3390 N.3    57  ILE57      -0.1245
     13  CA        22.2290   11.5370   51.2500 C.3    57  ILE57       0.1561
     14  C         21.1930   11.7750   50.1290 C.2    57  ILE57       0.2260
     15  O         20.8050   10.8550   49.4020 O.2    57  ILE57      -0.2867
     16  CB        23.4260   10.7340   50.7540 C.3    57  ILE57       0.0252
     17  CG1       24.4030   10.4990   51.9200 C.3    57  ILE57       0.0019
     18  CG2       24.0970   11.4380   49.6130 C.3    57  ILE57       0.0019
     19  CD1       25.5150    9.5150   51.6280 C.3    57  ILE57       0.0001
     20  N         20.2590   10.0240   46.6870 N.3    60  PHE60      -0.1227
     21  CA        20.7250    8.6670   46.7610 C.3    60  PHE60       0.1736
     22  C         19.9350    7.7120   47.6970 C.2    60  PHE60       0.2595
     23  O         19.2570    6.7920   47.2220 O.2    60  PHE60      -0.2718
     24  CB        22.1790    8.7460   47.1630 C.3    60  PHE60       0.0547
     25  CG        22.8390    7.4510   47.2380 C.ar   60  PHE60      -0.0202
     26  CD1       23.7810    7.2150   48.2090 C.ar   60  PHE60      -0.0042
     27  CD2       22.5310    6.4490   46.3290 C.ar   60  PHE60      -0.0042
     28  CE1       24.4190    5.9910   48.2930 C.ar   60  PHE60      -0.0003
     29  CE2       23.1680    5.2220   46.4110 C.ar   60  PHE60      -0.0003
     30  CZ        24.1040    4.9920   47.4050 C.ar   60  PHE60      -0.0000
     31  N         20.0150    7.9120   49.0130 N.am   61  MET61      -0.1979
     32  CA        19.3500    6.9920   49.9200 C.3    61  MET61       0.1605
     33  C         19.2290    7.4600   51.3600 C.2    61  MET61       0.2287
     34  O         19.9380    8.3930   51.7910 O.2    61  MET61      -0.2864
     35  CB        20.0720    5.6400   49.9060 C.3    61  MET61       0.0413
     36  CG        21.5330    5.6800   50.3600 C.3    61  MET61       0.0598
     37  SD        21.6340    5.3100   52.1120 S.3    61  MET61      -0.1393
     38  CE        23.0680    6.2710   52.5340 C.3    61  MET61       0.0692
     39  N         19.4180    5.6750   55.1080 N.3    63  GLN63      -0.1245
     40  CA        19.9220    4.5040   55.8050 C.3    63  GLN63       0.1566
     41  C         19.6530    4.5700   57.3160 C.2    63  GLN63       0.2260
     42  O         19.7920    5.6220   57.9620 O.2    63  GLN63      -0.2867
     43  CB        21.4340    4.3750   55.5620 C.3    63  GLN63       0.0367
     44  CG        22.0660    3.1030   56.1980 C.3    63  GLN63       0.0905
     45  CD        23.5200    2.9350   55.8640 C.2    63  GLN63       0.2608
     46  OE1       24.0070    3.5250   54.9150 O.2    63  GLN63      -0.2717
     47  NE2       24.2230    2.1060   56.6420 N.am   63  GLN63      -0.0878
     48  N         23.8500    0.3460   68.8000 N.3    69  ARG69      -0.1245
     49  CA        24.8950    1.3130   69.1300 C.3    69  ARG69       0.1563
     50  C         24.5140    2.7620   68.8190 C.2    69  ARG69       0.2260
     51  O         25.2480    3.6680   69.1940 O.2    69  ARG69      -0.2867
     52  CB        26.2180    0.9630   68.4460 C.3    69  ARG69       0.0307
     53  CG        26.6470   -0.4730   68.6430 C.3    69  ARG69       0.0489
     54  CD        28.0280   -0.7780   68.1250 C.3    69  ARG69       0.2205
     55  NE        28.2270   -2.2120   68.1010 N.pl3  69  ARG69      -0.0865
     56  CZ        29.2840   -2.8230   67.6100 C.cat  69  ARG69       0.5346
     57  NH1       30.2900   -2.1300   67.0740 N.pl3  69  ARG69       0.1354
     58  NH2       29.3230   -4.1510   67.6530 N.pl3  69  ARG69       0.1354
     59  N         25.5490    4.0680   63.8240 N.3    72  GLY72      -0.1210
     60  CA        25.8400    3.6180   62.4810 C.3    72  GLY72       0.1956
     61  C         26.7450    2.4270   62.3990 C.2    72  GLY72       0.2613
     62  O         26.8910    1.8570   61.3370 O.2    72  GLY72      -0.2717
     63  N         27.3500    2.0130   63.4980 N.am   73  THR73      -0.1938
     64  CA        28.2550    0.8760   63.4420 C.3    73  THR73       0.2028
     65  C         27.6290   -0.4280   63.9170 C.2    73  THR73       0.2642
     66  O         28.2090   -1.4570   63.7410 O.2    73  THR73      -0.2714
     67  CB        29.5020    1.1510   64.2890 C.3    73  THR73       0.1808
     68  OG1       29.1210    1.3780   65.6520 O.3    73  THR73      -0.2208
     69  CG2       30.1970    2.4760   63.8380 C.3    73  THR73       0.0379
     70  N         26.4390   -0.4150   64.4840 N.am   74  GLY74      -0.1954
     71  CA        25.9080   -1.6450   65.0520 C.3    74  GLY74       0.1869
     72  C         24.7040   -2.1990   64.3340 C.2    74  GLY74       0.2309
     73  O         24.5360   -1.9850   63.1360 O.2    74  GLY74      -0.2863
     74  N         21.9880   -2.9500   54.0010 N.3   101  ALA101     -0.1231
     75  CA        23.3530   -2.4170   54.1430 C.3   101  ALA101      0.1694
     76  C         24.2390   -3.5370   54.6340 C.2   101  ALA101      0.2592
     77  O         23.7320   -4.5050   55.1880 O.2   101  ALA101     -0.2718
     78  CB        23.3940   -1.2640   55.1220 C.3   101  ALA101      0.0304
     79  N         25.5540   -3.4560   54.4070 N.am  102  ASN102     -0.1960
     80  CA        26.4390   -4.5360   54.8680 C.3   102  ASN102      0.1819
     81  C         27.8710   -4.0750   55.0400 C.2   102  ASN102      0.2621
     82  O         28.2130   -2.9160   54.7570 O.2   102  ASN102     -0.2715
     83  CB        26.3440   -5.7680   53.9460 C.3   102  ASN102      0.1195
     84  CG        26.8630   -5.5000   52.5420 C.2   102  ASN102      0.2630
     85  OD1       27.9680   -4.9440   52.3670 O.2   102  ASN102     -0.2716
     86  ND2       26.0480   -5.8270   51.5310 N.am  102  ASN102     -0.0877
     87  N         28.7110   -4.9720   55.5310 N.am  103  ALA103     -0.1977
     88  CA        30.1120   -4.6640   55.7990 C.3   103  ALA103      0.1597
     89  C         30.9990   -5.6000   54.9900 C.2   103  ALA103      0.2287
     90  O         32.1000   -5.9300   55.4020 O.2   103  ALA103     -0.2864
     91  CB        30.4090   -4.7880   57.2860 C.3   103  ALA103      0.0319
     92  N         27.3570  -10.2850   55.7000 N.3   107  THR107     -0.1218
     93  CA        27.4200   -9.5400   56.9570 C.3   107  THR107      0.1862
     94  C         26.1410   -8.7630   57.2230 C.2   107  THR107      0.2287
     95  O         26.1650   -7.7170   57.8520 O.2   107  THR107     -0.2866
     96  CB        28.6440   -8.6100   56.9870 C.3   107  THR107      0.1770
     97  OG1       28.5870   -7.6590   55.8990 O.3   107  THR107     -0.2211
     98  CG2       29.9300   -9.4620   56.8020 C.3   107  THR107      0.0375
     99  N         20.7420   -3.1560   59.6600 N.3   111  GLN111     -0.1245
    100  CA        20.8200   -1.9310   58.8840 C.3   111  GLN111      0.1566
    101  C         20.3320   -2.1190   57.4390 C.2   111  GLN111      0.2260
    102  O         20.6750   -3.0960   56.7610 O.2   111  GLN111     -0.2867
    103  CB        22.2470   -1.3460   58.8830 C.3   111  GLN111      0.0367
    104  CG        22.7390   -0.8420   60.2350 C.3   111  GLN111      0.0905
    105  CD        23.8830    0.1770   60.1240 C.2   111  GLN111      0.2608
    106  OE1       23.9470    0.9840   59.1570 O.2   111  GLN111     -0.2717
    107  NE2       24.8030    0.1320   61.0940 N.am  111  GLN111     -0.0878
    108  N         18.6270    0.3880   53.8590 N.3   113  PHE113     -0.1241
    109  CA        18.5000    1.6820   53.2320 C.3   113  PHE113      0.1605
    110  C         17.3520    1.6570   52.2280 C.2   113  PHE113      0.2264
    111  O         16.9500    0.5810   51.6920 O.2   113  PHE113     -0.2867
    112  CB        19.8000    2.1570   52.5710 C.3   113  PHE113      0.0534
    113  CG        20.3090    1.2810   51.4350 C.ar  113  PHE113     -0.0203
    114  CD1       21.0440    0.1420   51.7080 C.ar  113  PHE113     -0.0042
    115  CD2       20.1410    1.6610   50.1130 C.ar  113  PHE113     -0.0042
    116  CE1       21.5770   -0.6440   50.6900 C.ar  113  PHE113     -0.0003
    117  CE2       20.6620    0.8890   49.0750 C.ar  113  PHE113     -0.0003
    118  CZ        21.3680   -0.2750   49.3600 C.ar  113  PHE113     -0.0000
    119  N         24.7350    0.7770   40.0010 N.3   121  TRP121     -0.1227
    120  CA        26.0080    0.3200   40.5620 C.3   121  TRP121      0.1737
    121  C         25.8690   -0.4330   41.8850 C.2   121  TRP121      0.2595
    122  O         26.8020   -1.1250   42.3090 O.2   121  TRP121     -0.2718
    123  CB        27.0290    1.4710   40.6900 C.3   121  TRP121      0.0564
    124  CG        26.6760    2.6280   41.6170 C.ar  121  TRP121      0.0003
    125  CD1       26.2150    3.8670   41.2520 C.ar  121  TRP121      0.0946
    126  CD2       26.8600    2.6800   43.0390 C.ar  121  TRP121      0.0152
    127  NE1       26.0880    4.6700   42.3610 N.ar  121  TRP121     -0.2442
    128  CE2       26.4840    3.9610   43.4690 C.ar  121  TRP121      0.0810
    129  CE3       27.3210    1.7710   43.9910 C.ar  121  TRP121      0.0012
    130  CZ2       26.5050    4.3370   44.8210 C.ar  121  TRP121      0.0191
    131  CZ3       27.3620    2.1540   45.3250 C.ar  121  TRP121      0.0001
    132  CH2       26.9650    3.4300   45.7210 C.ar  121  TRP121      0.0015
    133  N         24.7180   -0.2920   42.5360 N.am  122  LEU122     -0.1980
    134  CA        24.4610   -1.0040   43.7990 C.3   122  LEU122      0.1596
    135  C         24.1150   -2.4760   43.5470 C.2   122  LEU122      0.2287
    136  O         24.2510   -3.3210   44.4340 O.2   122  LEU122     -0.2864
    137  CB        23.3260   -0.3430   44.5570 C.3   122  LEU122      0.0297
    138  CG        23.6090    0.9950   45.2200 C.3   122  LEU122      0.0022
    139  CD1       22.2920    1.6400   45.6110 C.3   122  LEU122      0.0001
    140  CD2       24.4760    0.8560   46.4240 C.3   122  LEU122      0.0001
    141  N         25.7570   -5.8190   45.0050 N.3   125  LYS125     -0.1231
    142  CA        26.5240   -5.4270   46.1790 C.3   125  LYS125      0.1693
    143  C         25.7050   -5.5050   47.4890 C.2   125  LYS125      0.2592
    144  O         26.2860   -5.5710   48.5760 O.2   125  LYS125     -0.2718
    145  CB        27.0530   -4.0020   45.9890 C.3   125  LYS125      0.0285
    146  CG        28.0970   -3.8500   44.8620 C.3   125  LYS125      0.0035
    147  CD        28.6590   -2.4130   44.7270 C.3   125  LYS125      0.0206
    148  CE        29.6420   -2.3050   43.5590 C.3   125  LYS125      0.1093
    149  NZ        29.0470   -2.6720   42.2590 N.3   125  LYS125     -0.1314
    150  N         24.3790   -5.4720   47.3620 N.am  126  HIS126     -0.1976
    151  CA        23.4360   -5.4050   48.4740 C.3   126  HIS126      0.1656
    152  C         22.2190   -6.2680   48.0930 C.2   126  HIS126      0.2291
    153  O         21.8280   -6.3150   46.9280 O.2   126  HIS126     -0.2864
    154  CB        22.9890   -3.9490   48.6980 C.3   126  HIS126      0.0771
    155  CG        24.1100   -3.0540   49.0960 C.ar  126  HIS126      0.0820
    156  ND1       24.6130   -3.0360   50.3720 N.ar  126  HIS126     -0.2267
    157  CD2       24.9040   -2.2300   48.3690 C.ar  126  HIS126      0.1154
    158  CE1       25.6580   -2.2260   50.4250 C.ar  126  HIS126      0.1986
    159  NE2       25.8550   -1.7170   49.2240 N.ar  126  HIS126     -0.2212
    160  N         25.4090   15.9620   51.8440 N.3   148  ARG148     -0.1245
    161  CA        26.3680   15.2330   51.0180 C.3   148  ARG148      0.1563
    162  C         27.1140   14.1530   51.7700 C.2   148  ARG148      0.2260
    163  O         27.3300   13.0780   51.2350 O.2   148  ARG148     -0.2867
    164  CB        27.3830   16.1820   50.3790 C.3   148  ARG148      0.0307
    165  CG        26.8770   16.8120   49.1130 C.3   148  ARG148      0.0489
    166  CD        27.8280   17.8590   48.5190 C.3   148  ARG148      0.2205
    167  NE        27.2030   18.5960   47.4180 N.pl3 148  ARG148     -0.0865
    168  CZ        27.8680   19.2890   46.5030 C.cat 148  ARG148      0.5346
    169  NH1       27.2000   19.9180   45.5330 N.pl3 148  ARG148      0.1354
    170  NH2       29.2030   19.3500   46.5490 N.pl3 148  ARG148      0.1354
@<TRIPOS>BOND
     1   119   120    1
     2   120   123    1
     3   120   121    1
     4   123   124    1
     5   125   124   ar
     6   125   127   ar
     7   124   126   ar
     8   121   122    2
     9   121   133   am
    10   149   148    1
    11   127   128   ar
    12   133   134    1
    13   126   128   ar
    14   126   129   ar
    15   128   130   ar
    16   135   134    1
    17   135   136    2
    18   148   147    1
    19   134   137    1
    20   129   131   ar
    21   137   138    1
    22   147   146    1
    23   130   132   ar
    24   146   145    1
    25   141   142    1
    26   138   139    1
    27   138   140    1
    28   131   132   ar
    29   169   168    1
    30   145   142    1
    31   142   143    1
    32    27    29   ar
    33    27    25   ar
    34    29    30   ar
    35   168   170    1
    36   168   167    2
    37    20    21    1
    38    21    24    1
    39    21    22    1
    40   153   152    2
    41    24    25    1
    42    23    22    2
    43    25    26   ar
    44   150   143   am
    45   150   151    1
    46    30    28   ar
    47   167   166    1
    48   143   144    2
    49    22    31   am
    50   152   151    1
    51    26    28   ar
    52   157   155   ar
    53   157   159   ar
    54   151   154    1
    55   166   165    1
    56   154   155    1
    57    31    32    1
    58   117   118   ar
    59   117   115   ar
    60   155   156   ar
    61   165   164    1
    62   159   158   ar
    63   118   116   ar
    64    15    14    2
    65    18    16    1
    66    35    32    1
    67    35    36    1
    68    32    33    1
    69   115   113   ar
    70    14    13    1
    71    36    37    1
    72   156   158   ar
    73   164   161    1
    74   116   114   ar
    75    16    13    1
    76    16    17    1
    77   161   162    1
    78   161   160    1
    79   163   162    2
    80    13    12    1
    81    33    34    2
    82   113   114   ar
    83   113   112    1
    84    86    84   am
    85    19    17    1
    86   111   110    2
    87    37    38    1
    88   110   109    1
    89    85    84    2
    90    84    83    1
    91   112   109    1
    92   109   108    1
    93    83    80    1
    94    74    75    1
    95    75    76    1
    96    75    78    1
    97    79    76   am
    98    79    80    1
    99    76    77    2
   100    82    81    2
   101    80    81    1
   102    46    45    2
   103    89    90    2
   104    89    88    1
   105    81    87   am
   106    39    40    1
   107     7     6    1
   108     7     8    1
   109    87    88    1
   110    43    40    1
   111    43    44    1
   112     6     5    1
   113     4     3    2
   114    92    93    1
   115    11     9    1
   116    88    91    1
   117    40    41    1
   118    45    44    1
   119    45    47   am
   120    97    96    1
   121     3     2    1
   122     8     9    2
   123     9    10    1
   124     5     2    1
   125   102   101    2
   126    98    96    1
   127    93    96    1
   128    93    94    1
   129     2     1    1
   130    94    95    2
   131    41    42    2
   132   101   100    1
   133   103   100    1
   134   103   104    1
   135   100    99    1
   136   106   105    2
   137   105   104    1
   138   105   107   am
   139    62    61    2
   140    61    60    1
   141    61    63   am
   142    60    59    1
   143    73    72    2
   144    64    63    1
   145    64    65    1
   146    64    67    1
   147    66    65    2
   148    69    67    1
   149    65    70   am
   150    67    68    1
   151    72    71    1
   152    70    71    1
   153    57    56    1
   154    56    58    1
   155    56    55    2
   156    55    54    1
   157    54    53    1
   158    52    53    1
   159    52    49    1
   160    48    49    1
   161    50    49    1
   162    50    51    2
