@<TRIPOS>MOLECULE
tmp/1nmlA02.pdb
 121 126 0 0 0
SMALL
GASTEIGER

@<TRIPOS>ATOM
      1  N         39.6900   12.5240   19.5600 N.3    79  ASN79      -0.1225
      2  CA        40.9280   11.7890   19.3250 C.3    79  ASN79       0.1785
      3  C         41.9810   12.2950   20.3060 C.2    79  ASN79       0.2598
      4  O         41.8450   13.3840   20.8590 O.2    79  ASN79      -0.2718
      5  CB        41.3920   12.0480   17.8920 C.3    79  ASN79       0.1169
      6  CG        42.4820   11.1020   17.4420 C.2    79  ASN79       0.2627
      7  OD1       43.1360   11.3390   16.4210 O.2    79  ASN79      -0.2716
      8  ND2       42.6780   10.0220   18.1840 N.am   79  ASN79      -0.0877
      9  N         43.0260   11.5130   20.5410 N.am   80  SER80      -0.1938
     10  CA        44.0700   11.9530   21.4550 C.3    80  SER80       0.2040
     11  C         45.3410   12.2610   20.6710 C.2    80  SER80       0.2485
     12  O         45.7270   11.5120   19.7660 O.2    80  SER80      -0.2729
     13  CB        44.3730   10.8810   22.4930 C.3    80  SER80       0.2129
     14  OG        44.9680    9.7600   21.8720 O.3    80  SER80      -0.2179
     15  N         45.9910   13.3870   20.9940 N.am   81  PRO81      -0.2726
     16  CA        47.2250   13.8070   20.3350 C.3    81  PRO81       0.1402
     17  C         48.3600   12.9910   20.9450 C.2    81  PRO81       0.2269
     18  O         48.1820   12.3660   21.9920 O.2    81  PRO81      -0.2865
     19  CB        47.3210   15.2830   20.7020 C.3    81  PRO81       0.0296
     20  CG        46.7760   15.2830   22.1070 C.3    81  PRO81       0.0237
     21  CD        45.5750   14.3700   22.0060 C.3    81  PRO81       0.0939
     22  N         46.1320   20.7760   21.5060 N.3    93  PHE93      -0.1227
     23  CA        45.0520   20.0970   20.8010 C.3    93  PHE93       0.1736
     24  C         43.7850   20.8850   21.1280 C.2    93  PHE93       0.2595
     25  O         43.5370   21.2180   22.2900 O.2    93  PHE93      -0.2718
     26  CB        44.8960   18.6730   21.3430 C.3    93  PHE93       0.0547
     27  CG        43.6650   17.9570   20.8520 C.ar   93  PHE93      -0.0202
     28  CD1       43.7640   16.9640   19.8820 C.ar   93  PHE93      -0.0042
     29  CD2       42.4050   18.2520   21.3820 C.ar   93  PHE93      -0.0042
     30  CE1       42.6270   16.2660   19.4440 C.ar   93  PHE93      -0.0003
     31  CE2       41.2620   17.5610   20.9520 C.ar   93  PHE93      -0.0003
     32  CZ        41.3780   16.5640   19.9790 C.ar   93  PHE93      -0.0000
     33  N         42.9830   21.1880   20.1170 N.am   94  TRP94      -0.1976
     34  CA        41.7430   21.9110   20.3670 C.3    94  TRP94       0.1640
     35  C         40.6550   21.3930   19.4690 C.2    94  TRP94       0.2290
     36  O         40.8200   21.2650   18.2530 O.2    94  TRP94      -0.2864
     37  CB        41.8960   23.4140   20.1410 C.3    94  TRP94       0.0576
     38  CG        40.8090   24.2130   20.8140 C.ar   94  TRP94       0.0006
     39  CD1       39.7350   24.8240   20.2200 C.ar   94  TRP94       0.0946
     40  CD2       40.7180   24.5130   22.2110 C.ar   94  TRP94       0.0152
     41  NE1       38.9880   25.4950   21.1650 N.ar   94  TRP94      -0.2442
     42  CE2       39.5680   25.3190   22.3930 C.ar   94  TRP94       0.0810
     43  CE3       41.5000   24.1810   23.3270 C.ar   94  TRP94       0.0012
     44  CZ2       39.1820   25.8000   23.6470 C.ar   94  TRP94       0.0191
     45  CZ3       41.1160   24.6580   24.5780 C.ar   94  TRP94       0.0001
     46  CH2       39.9640   25.4610   24.7250 C.ar   94  TRP94       0.0015
     47  N         40.3890   24.3170   15.1750 N.3   235  PHE235     -0.1227
     48  CA        41.2330   23.1720   15.4590 C.3   235  PHE235      0.1736
     49  C         42.6780   23.6000   15.3130 C.2   235  PHE235      0.2595
     50  O         42.9990   24.5200   14.5600 O.2   235  PHE235     -0.2718
     51  CB        40.9520   22.0300   14.4730 C.3   235  PHE235      0.0547
     52  CG        39.4960   21.6940   14.3440 C.ar  235  PHE235     -0.0202
     53  CD1       38.6990   22.3530   13.4160 C.ar  235  PHE235     -0.0042
     54  CD2       38.9120   20.7560   15.1840 C.ar  235  PHE235     -0.0042
     55  CE1       37.3370   22.0860   13.3280 C.ar  235  PHE235     -0.0003
     56  CE2       37.5480   20.4790   15.1050 C.ar  235  PHE235     -0.0003
     57  CZ        36.7590   21.1480   14.1740 C.ar  235  PHE235     -0.0000
     58  N         43.5500   22.9390   16.0490 N.am  236  ARG236     -0.1980
     59  CA        44.9640   23.2260   15.9510 C.3   236  ARG236      0.1597
     60  C         45.4970   22.5130   14.7030 C.2   236  ARG236      0.2287
     61  O         45.1220   21.3720   14.4300 O.2   236  ARG236     -0.2864
     62  CB        45.6560   22.6970   17.1900 C.3   236  ARG236      0.0334
     63  CG        47.1560   22.7700   17.1630 C.3   236  ARG236      0.0492
     64  CD        47.6340   21.4120   17.5820 C.3   236  ARG236      0.2205
     65  NE        48.5420   21.4900   18.6840 N.pl3 236  ARG236     -0.0865
     66  CZ        48.9690   20.4440   19.3670 C.cat 236  ARG236      0.5346
     67  NH1       48.5570   19.2150   19.0640 N.pl3 236  ARG236      0.1354
     68  NH2       49.8390   20.6470   20.3350 N.pl3 236  ARG236      0.1354
     69  N         47.5480   20.2240   12.9830 N.3   238  SER238     -0.1203
     70  CA        48.3140   19.1070   13.5260 C.3   238  SER238      0.2005
     71  C         49.8080   19.0930   13.2550 C.2   238  SER238      0.2460
     72  O         50.2510   19.3470   12.1370 O.2   238  SER238     -0.2732
     73  CB        47.7830   17.7660   13.0090 C.3   238  SER238      0.2103
     74  OG        46.3820   17.7810   12.8520 O.3   238  SER238     -0.2182
     75  N         50.6030   18.8220   14.2960 N.am  239  PRO239     -0.2728
     76  CA        52.0560   18.7520   14.0990 C.3   239  PRO239      0.1401
     77  C         52.1430   17.4090   13.3350 C.2   239  PRO239      0.2269
     78  O         51.5660   16.4190   13.7770 O.2   239  PRO239     -0.2865
     79  CB        52.6020   18.6580   15.5270 C.3   239  PRO239      0.0296
     80  CG        51.4710   18.0030   16.2940 C.3   239  PRO239      0.0237
     81  CD        50.2370   18.6780   15.7200 C.3   239  PRO239      0.0939
     82  N         44.8710    6.7720   14.6380 N.3   248  PRO248     -0.2102
     83  CA        44.0390    7.4400   13.6300 C.3   248  PRO248      0.1504
     84  C         44.1980    8.9650   13.6680 C.2   248  PRO248      0.2576
     85  O         44.6510    9.5390   14.6690 O.2   248  PRO248     -0.2718
     86  CB        42.6310    6.9640   13.9770 C.3   248  PRO248      0.0282
     87  CG        42.6820    6.8620   15.4760 C.3   248  PRO248      0.0208
     88  CD        44.0540    6.2770   15.7630 C.3   248  PRO248      0.0893
     89  N         43.7850    9.6110   12.5800 N.am  249  TYR249     -0.1963
     90  CA        43.9590   11.0470   12.3950 C.3   249  TYR249      0.1771
     91  C         42.7940   12.0280   12.5710 C.2   249  TYR249      0.2620
     92  O         41.6170   11.6530   12.5330 O.2   249  TYR249     -0.2715
     93  CB        44.5870   11.2510   11.0180 C.3   249  TYR249      0.0574
     94  CG        45.8030   10.3690   10.7960 C.ar  249  TYR249     -0.0198
     95  CD1       45.8340    9.4240    9.7610 C.ar  249  TYR249     -0.0009
     96  CD2       46.9380   10.5010   11.5990 C.ar  249  TYR249     -0.0009
     97  CE1       46.9720    8.6410    9.5280 C.ar  249  TYR249      0.0417
     98  CE2       48.0740    9.7290   11.3780 C.ar  249  TYR249      0.0417
     99  CZ        48.0840    8.8050   10.3350 C.ar  249  TYR249      0.1957
    100  OH        49.2240    8.0870   10.0860 O.3   249  TYR249     -0.2866
    101  N         43.1670   13.2990   12.7550 N.am  250  PHE250     -0.1960
    102  CA        42.2420   14.4210   12.9400 C.3   250  PHE250      0.1771
    103  C         41.5650   14.4330   14.3030 C.2   250  PHE250      0.2619
    104  O         41.6220   13.4500   15.0460 O.2   250  PHE250     -0.2715
    105  CB        41.1920   14.4530   11.8220 C.3   250  PHE250      0.0574
    106  CG        41.7850   14.5980   10.4470 C.ar  250  PHE250     -0.0200
    107  CD1       42.0120   13.4800    9.6460 C.ar  250  PHE250     -0.0042
    108  CD2       42.1480   15.8480    9.9610 C.ar  250  PHE250     -0.0042
    109  CE1       42.5920   13.6110    8.3800 C.ar  250  PHE250     -0.0003
    110  CE2       42.7280   15.9880    8.6990 C.ar  250  PHE250     -0.0003
    111  CZ        42.9510   14.8630    7.9070 C.ar  250  PHE250     -0.0000
    112  N         40.9320   15.5560   14.6320 N.am  251  HIS251     -0.1973
    113  CA        40.2650   15.7100   15.9220 C.3   251  HIS251      0.1656
    114  C         39.3260   14.5620   16.2760 C.2   251  HIS251      0.2291
    115  O         39.1540   14.2370   17.4480 O.2   251  HIS251     -0.2864
    116  CB        39.4800   17.0340   15.9770 C.3   251  HIS251      0.0771
    117  CG        38.2400   17.0540   15.1320 C.ar  251  HIS251      0.0820
    118  ND1       38.2680   17.2450   13.7660 N.ar  251  HIS251     -0.2267
    119  CD2       36.9340   16.9110   15.4620 C.ar  251  HIS251      0.1154
    120  CE1       37.0340   17.2210   13.2920 C.ar  251  HIS251      0.1986
    121  NE2       36.2050   17.0200   14.3000 N.ar  251  HIS251     -0.2212
@<TRIPOS>BOND
     1   111   109   ar
     2   111   110   ar
     3   109   107   ar
     4   110   108   ar
     5    97    95   ar
     6    97    99   ar
     7   107   106   ar
     8    95    94   ar
     9   108   106   ar
    10   100    99    1
    11    99    98   ar
    12   106   105    1
    13    94    93    1
    14    94    96   ar
    15    93    90    1
    16    98    96   ar
    17   105   102    1
    18    72    71    2
    19    90    91    1
    20    90    89    1
    21    92    91    2
    22    91   101   am
    23    89    84   am
    24   101   102    1
    25    74    73    1
    26   102   103    1
    27    69    70    1
    28    73    70    1
    29    71    70    1
    30    71    75   am
    31   120   118   ar
    32   120   121   ar
    33    55    53   ar
    34    55    57   ar
    35    77    78    2
    36    77    76    1
    37    53    52   ar
    38    83    84    1
    39    83    86    1
    40    83    82    1
    41    84    85    2
    42   118   117   ar
    43    86    87    1
    44    76    75    1
    45    76    79    1
    46    57    56   ar
    47    75    81    1
    48   121   119   ar
    49   103   112   am
    50   103   104    2
    51    52    51    1
    52    52    54   ar
    53    61    60    2
    54    51    48    1
    55    50    49    2
    56   112   113    1
    57    82    88    1
    58    60    59    1
    59    56    54   ar
    60   117   119   ar
    61   117   116    1
    62    47    48    1
    63    49    48    1
    64    49    58   am
    65    87    88    1
    66    79    80    1
    67    81    80    1
    68   113   116    1
    69   113   114    1
    70    59    58    1
    71    59    62    1
    72   114   115    2
    73     7     6    2
    74    63    62    1
    75    63    64    1
    76     6     5    1
    77     6     8   am
    78    64    65    1
    79     5     2    1
    80    36    35    2
    81    65    66    2
    82    67    66    1
    83     2     1    1
    84     2     3    1
    85    66    68    1
    86    30    28   ar
    87    30    32   ar
    88    35    34    1
    89    12    11    2
    90    28    27   ar
    91    32    31   ar
    92    33    34    1
    93    33    24   am
    94    37    34    1
    95    37    38    1
    96    39    38   ar
    97    39    41   ar
    98     3     9   am
    99     3     4    2
   100    16    19    1
   101    16    17    1
   102    16    15    1
   103     9    10    1
   104    11    15   am
   105    11    10    1
   106    19    20    1
   107    23    24    1
   108    23    26    1
   109    23    22    1
   110    38    40   ar
   111    27    26    1
   112    27    29   ar
   113    17    18    2
   114    31    29   ar
   115    15    21    1
   116    24    25    2
   117    41    42   ar
   118    10    13    1
   119    14    13    1
   120    21    20    1
   121    40    42   ar
   122    40    43   ar
   123    42    44   ar
   124    43    45   ar
   125    44    46   ar
   126    45    46   ar
