@<TRIPOS>MOLECULE
tmp/1nmlA03.pdb
 109 104 0 0 0
SMALL
GASTEIGER

@<TRIPOS>ATOM
      1  N         54.8710    8.7460   37.7560 N.3    37  GLU37      -0.1245
      2  CA        53.5150    9.2570   37.7220 C.3    37  GLU37       0.1567
      3  C         52.8400    9.0730   36.3760 C.2    37  GLU37       0.2260
      4  O         51.6250    8.8380   36.3110 O.2    37  GLU37      -0.2867
      5  CB        53.5100   10.7370   38.1300 C.3    37  GLU37       0.0388
      6  CG        53.9780   10.9350   39.5640 C.3    37  GLU37       0.1160
      7  CD        53.8910   12.3620   40.0150 C.2    37  GLU37       0.3649
      8  OE1       54.4920   13.2260   39.3600 O.co2  37  GLU37      -0.2457
      9  OE2       53.2180   12.6220   41.0320 O.co2  37  GLU37      -0.2457
     10  N         51.5230    5.7970   36.5670 N.3    40  GLU40      -0.1245
     11  CA        50.7870    5.5140   37.7950 C.3    40  GLU40       0.1567
     12  C         49.2790    5.5020   37.5810 C.2    40  GLU40       0.2260
     13  O         48.6720    6.5460   37.3810 O.2    40  GLU40      -0.2867
     14  CB        51.1590    6.5460   38.8620 C.3    40  GLU40       0.0388
     15  CG        50.3470    6.4410   40.1440 C.3    40  GLU40       0.1160
     16  CD        50.5120    5.0890   40.8090 C.2    40  GLU40       0.3649
     17  OE1       51.6040    4.8060   41.3550 O.co2  40  GLU40      -0.2457
     18  OE2       49.5390    4.3110   40.7610 O.co2  40  GLU40      -0.2457
     19  N         46.0990    7.2590   40.2040 N.3    43  LEU43      -0.1231
     20  CA        45.6880    8.6640   40.2510 C.3    43  LEU43       0.1693
     21  C         44.2520    8.7480   39.7360 C.2    43  LEU43       0.2593
     22  O         43.5430    9.7180   40.0020 O.2    43  LEU43      -0.2718
     23  CB        46.5880    9.5460   39.3800 C.3    43  LEU43       0.0284
     24  CG        48.0850    9.5280   39.6850 C.3    43  LEU43       0.0019
     25  CD1       48.7810   10.5790   38.8340 C.3    43  LEU43       0.0001
     26  CD2       48.3260    9.7850   41.1710 C.3    43  LEU43       0.0001
     27  N         43.8210    7.7380   38.9860 N.am   44  SER44      -0.1938
     28  CA        42.4540    7.7220   38.4740 C.3    44  SER44       0.2055
     29  C         41.5540    7.1650   39.5840 C.2    44  SER44       0.2643
     30  O         42.0020    6.3660   40.4040 O.2    44  SER44      -0.2714
     31  CB        42.3550    6.8380   37.2250 C.3    44  SER44       0.2130
     32  OG        42.7160    5.4910   37.5080 O.3    44  SER44      -0.2179
     33  N         40.2890    7.5730   39.6090 N.am   45  SER45      -0.1949
     34  CA        39.3830    7.0890   40.6450 C.3    45  SER45       0.1924
     35  C         39.1870    5.5780   40.5730 C.2    45  SER45       0.2314
     36  O         39.0400    4.9170   41.6000 O.2    45  SER45      -0.2863
     37  CB        38.0340    7.8050   40.5550 C.3    45  SER45       0.2116
     38  OG        37.4670    7.6740   39.2680 O.3    45  SER45      -0.2180
     39  N         43.3700    3.5300   35.0890 N.3    49  ILE49      -0.1231
     40  CA        43.9040    4.4060   34.0490 C.3    49  ILE49       0.1692
     41  C         45.1150    5.2620   34.4390 C.2    49  ILE49       0.2593
     42  O         45.1580    5.8310   35.5280 O.2    49  ILE49      -0.2718
     43  CB        42.7790    5.3430   33.5720 C.3    49  ILE49       0.0266
     44  CG1       41.6350    4.5180   32.9770 C.3    49  ILE49       0.0019
     45  CG2       43.3040    6.3410   32.5660 C.3    49  ILE49       0.0020
     46  CD1       40.3770    5.3460   32.6850 C.3    49  ILE49       0.0001
     47  N         46.0920    5.3520   33.5420 N.am   50  SER50      -0.1938
     48  CA        47.2800    6.1770   33.7610 C.3    50  SER50       0.2055
     49  C         47.4750    6.9860   32.4730 C.2    50  SER50       0.2643
     50  O         46.7460    6.7760   31.5050 O.2    50  SER50      -0.2714
     51  CB        48.5160    5.3110   33.9960 C.3    50  SER50       0.2130
     52  OG        48.9580    4.7290   32.7820 O.3    50  SER50      -0.2179
     53  N         48.4530    7.8960   32.4520 N.am   51  CYS51      -0.1967
     54  CA        48.7050    8.6930   31.2460 C.3    51  CYS51       0.1712
     55  C         49.0260    7.7500   30.0850 C.2    51  CYS51       0.2296
     56  O         48.5620    7.9380   28.9550 O.2    51  CYS51      -0.2864
     57  CB        49.9180    9.6230   31.4300 C.3    51  CYS51       0.0983
     58  SG        49.9250   10.6580   32.9210 S.3    51  CYS51      -0.0798
     59  N         36.8210   10.6230   28.1210 N.3    69  ILE69      -0.1231
     60  CA        37.3580   10.9290   29.4340 C.3    69  ILE69       0.1692
     61  C         38.7960   11.4340   29.4080 C.2    69  ILE69       0.2593
     62  O         39.4170   11.5210   28.3520 O.2    69  ILE69      -0.2718
     63  CB        37.2480    9.7090   30.3700 C.3    69  ILE69       0.0266
     64  CG1       37.9400    8.5040   29.7460 C.3    69  ILE69       0.0019
     65  CG2       35.7730    9.3710   30.6080 C.3    69  ILE69       0.0020
     66  CD1       38.1480    7.3750   30.7260 C.3    69  ILE69       0.0001
     67  N         39.3100   11.7700   30.5870 N.am   70  GLY70      -0.1942
     68  CA        40.6540   12.3020   30.7060 C.3    70  GLY70       0.2014
     69  C         40.6040   13.8220   30.7240 C.2    70  GLY70       0.2638
     70  O         39.7640   14.4190   30.0510 O.2    70  GLY70      -0.2714
     71  N         41.4930   14.4390   31.4990 N.am   71  HIS71      -0.1973
     72  CA        41.5790   15.8950   31.6070 C.3    71  HIS71       0.1656
     73  C         40.2650   16.5950   31.9740 C.2    71  HIS71       0.2291
     74  O         39.9670   17.6810   31.4770 O.2    71  HIS71      -0.2864
     75  CB        42.1320   16.4630   30.3000 C.3    71  HIS71       0.0771
     76  CG        43.4450   15.8630   29.9090 C.ar   71  HIS71       0.0820
     77  ND1       44.5800   16.0020   30.6760 N.ar   71  HIS71      -0.2267
     78  CD2       43.7880   15.0680   28.8670 C.ar   71  HIS71       0.1154
     79  CE1       45.5660   15.3180   30.1240 C.ar   71  HIS71       0.1986
     80  NE2       45.1120   14.7420   29.0270 N.ar   71  HIS71      -0.2212
     81  N         46.0990   18.6210   33.3990 N.3   114  GLU114     -0.1231
     82  CA        44.7410   18.9530   33.8010 C.3   114  GLU114      0.1699
     83  C         44.1890   17.5590   34.1320 C.2   114  GLU114      0.2592
     84  O         44.2690   16.6490   33.3030 O.2   114  GLU114     -0.2718
     85  CB        43.9610   19.5630   32.6300 C.3   114  GLU114      0.0402
     86  CG        44.3420   21.0140   32.3140 C.3   114  GLU114      0.1161
     87  CD        43.8330   21.4970   30.9540 C.2   114  GLU114      0.3649
     88  OE1       42.9080   20.8750   30.3820 O.co2 114  GLU114     -0.2457
     89  OE2       44.3620   22.5140   30.4530 O.co2 114  GLU114     -0.2457
     90  N         43.6420   17.3820   35.3290 N.am  115  MET115     -0.1965
     91  CA        43.1300   16.0730   35.7240 C.3   115  MET115      0.1736
     92  C         41.6490   15.9980   36.0720 C.2   115  MET115      0.2617
     93  O         41.0230   17.0010   36.4080 O.2   115  MET115     -0.2715
     94  CB        43.9410   15.5390   36.9030 C.3   115  MET115      0.0427
     95  CG        45.4090   15.3290   36.5860 C.3   115  MET115      0.0599
     96  SD        46.2260   14.4280   37.8920 S.3   115  MET115     -0.1393
     97  CE        47.7160   13.9130   37.0450 C.3   115  MET115      0.0692
     98  N         41.0970   14.7910   35.9770 N.am  116  SER116     -0.1936
     99  CA        39.7020   14.5540   36.2990 C.3   116  SER116      0.2055
    100  C         39.5730   14.3220   37.8040 C.2   116  SER116      0.2643
    101  O         38.5890   14.7400   38.4140 O.2   116  SER116     -0.2714
    102  CB        39.1710   13.3380   35.5340 C.3   116  SER116      0.2130
    103  OG        39.2300   13.5570   34.1350 O.3   116  SER116     -0.2179
    104  N         40.5620   13.6550   38.3970 N.am  117  SER117     -0.1949
    105  CA        40.5520   13.3930   39.8370 C.3   117  SER117      0.1924
    106  C         40.8270   14.6960   40.5820 C.2   117  SER117      0.2314
    107  O         41.5810   15.5510   40.1040 O.2   117  SER117     -0.2863
    108  CB        41.6260   12.3640   40.2130 C.3   117  SER117      0.2116
    109  OG        41.3060   11.0680   39.7330 O.3   117  SER117     -0.2180
@<TRIPOS>BOND
     1    59    60    1
     2    62    61    2
     3    78    80   ar
     4    78    76   ar
     5    56    55    2
     6    80    79   ar
     7    61    60    1
     8    61    67   am
     9    60    63    1
    10    64    63    1
    11    64    66    1
    12    76    75    1
    13    76    77   ar
    14    70    69    2
    15    55    54    1
    16    79    77   ar
    17    75    72    1
    18    63    65    1
    19    88    87   ar
    20    89    87   ar
    21    67    68    1
    22    68    69    1
    23    69    71   am
    24    87    86    1
    25    54    57    1
    26    54    53    1
    27    57    58    1
    28    74    73    2
    29    71    72    1
    30    50    49    2
    31    72    73    1
    32    86    85    1
    33    53    49   am
    34    49    48    1
    35    45    43    1
    36    85    82    1
    37    46    44    1
    38    52    51    1
    39    44    43    1
    40    84    83    2
    41    81    82    1
    42    47    48    1
    43    47    41   am
    44    43    40    1
    45    48    51    1
    46    82    83    1
    47    40    41    1
    48    40    39    1
    49    83    90   am
    50   103   102    1
    51    41    42    2
    52    90    91    1
    53   102    99    1
    54    91    92    1
    55    91    94    1
    56    98    92   am
    57    98    99    1
    58    92    93    2
    59    99   100    1
    60     4     3    2
    61     3     2    1
    62    10    11    1
    63    95    94    1
    64    95    96    1
    65    97    96    1
    66    31    32    1
    67    31    28    1
    68    13    12    2
    69    12    11    1
    70     2     1    1
    71     2     5    1
    72    11    14    1
    73   100   104   am
    74   100   101    2
    75     5     6    1
    76   104   105    1
    77    28    27    1
    78    28    29    1
    79    25    24    1
    80    14    15    1
    81    27    21   am
    82    38    37    1
    83     8     7   ar
    84    23    24    1
    85    23    20    1
    86     6     7    1
    87    29    33   am
    88    29    30    2
    89    33    34    1
    90    24    26    1
    91   109   108    1
    92    21    22    2
    93    21    20    1
    94   105   108    1
    95   105   106    1
    96     7     9   ar
    97   107   106    2
    98    15    16    1
    99    19    20    1
   100    37    34    1
   101    35    34    1
   102    35    36    2
   103    18    16   ar
   104    16    17   ar
