@<TRIPOS>MOLECULE
tmp/1nmqA00.pdb
 180 179 0 0 0
SMALL
GASTEIGER

@<TRIPOS>ATOM
      1  N          0.8910   26.1780  -10.8380 N.3    29  THR29      -0.1218
      2  CA         0.6800   27.0510  -11.9820 C.3    29  THR29       0.1862
      3  C          1.6570   28.2180  -12.0180 C.2    29  THR29       0.2287
      4  O          2.2110   28.6110  -11.0010 O.2    29  THR29      -0.2866
      5  CB        -0.7690   27.5860  -11.9590 C.3    29  THR29       0.1770
      6  OG1       -1.0530   28.1460  -10.6710 O.3    29  THR29      -0.2211
      7  CG2       -1.7540   26.4440  -12.0440 C.3    29  THR29       0.0375
      8  N          2.6780   32.0290  -12.1340 N.3    31  ARG31      -0.1245
      9  CA         2.0550   33.1770  -11.4830 C.3    31  ARG31       0.1563
     10  C          1.9230   34.3610  -12.4570 C.2    31  ARG31       0.2260
     11  O          2.5580   35.4120  -12.2940 O.2    31  ARG31      -0.2867
     12  CB         2.8070   33.5490  -10.1880 C.3    31  ARG31       0.0307
     13  CG         2.8220   32.4150   -9.1390 C.3    31  ARG31       0.0489
     14  CD         3.2890   32.8240   -7.7380 C.3    31  ARG31       0.2205
     15  NE         2.6430   34.0490   -7.3140 N.pl3  31  ARG31      -0.0865
     16  CZ         3.2160   35.2310   -7.3910 C.cat  31  ARG31       0.5346
     17  NH1        4.4690   35.3120   -7.8290 N.pl3  31  ARG31       0.1354
     18  NH2        2.5480   36.3250   -7.0250 N.pl3  31  ARG31       0.1354
     19  N          5.2060   34.7770   -4.5490 N.3    87  SER87      -0.1202
     20  CA         5.2250   33.3790   -4.8740 C.3    87  SER87       0.2020
     21  C          3.9460   32.7340   -4.3850 C.2    87  SER87       0.2619
     22  O          3.0820   33.4050   -3.8320 O.2    87  SER87      -0.2717
     23  CB         6.4160   32.7370   -4.1600 C.3    87  SER87       0.2103
     24  OG         6.5450   31.3580   -4.4530 O.3    87  SER87      -0.2182
     25  N          3.8150   31.4320   -4.6220 N.am   88  HIS88      -0.1961
     26  CA         2.7240   30.6720   -4.0390 C.3    88  HIS88       0.1790
     27  C          3.1560   30.4730   -2.5950 C.2    88  HIS88       0.2659
     28  O          4.3440   30.6740   -2.2610 O.2    88  HIS88      -0.2711
     29  CB         2.5740   29.3000   -4.7050 C.3    88  HIS88       0.0785
     30  CG         2.0720   29.3550   -6.1100 C.ar   88  HIS88       0.0821
     31  ND1        0.8300   29.8550   -6.4370 N.ar   88  HIS88      -0.2267
     32  CD2        2.6380   28.9570   -7.2740 C.ar   88  HIS88       0.1154
     33  CE1        0.6580   29.7750   -7.7460 C.ar   88  HIS88       0.1986
     34  NE2        1.7350   29.2230   -8.2760 N.ar   88  HIS88      -0.2212
     35  N          2.2060   30.0650   -1.7540 N.am   89  GLY89      -0.1730
     36  CA         2.4720   29.8080   -0.3510 C.2    89  GLY89       0.1340
     37  C          1.3280   29.1760    0.4270 C.2    89  GLY89       0.2521
     38  O          0.2120   28.9590   -0.0950 O.2    89  GLY89      -0.2816
     39  N          3.4740   38.4210   -0.7670 N.3   128  GLN128     -0.1231
     40  CA         2.3310   38.1400   -1.6070 C.3   128  GLN128      0.1698
     41  C          2.3400   36.6470   -1.8070 C.2   128  GLN128      0.2592
     42  O          3.1090   36.1050   -2.6270 O.2   128  GLN128     -0.2718
     43  CB         2.4800   38.8260   -2.9560 C.3   128  GLN128      0.0381
     44  CG         1.4880   38.3600   -4.0200 C.3   128  GLN128      0.0905
     45  CD         0.0370   38.4250   -3.5570 C.2   128  GLN128      0.2608
     46  OE1       -0.3950   39.4150   -2.9740 O.2   128  GLN128     -0.2717
     47  NE2       -0.7260   37.3750   -3.8450 N.am  128  GLN128     -0.0878
     48  N          1.4920   35.9740   -1.0430 N.am  129  ALA129     -0.1966
     49  CA         1.3760   34.5370   -1.1300 C.3   129  ALA129      0.1728
     50  C          0.1570   34.0880   -0.3360 C.2   129  ALA129      0.2616
     51  O         -0.2750   34.7870    0.5680 O.2   129  ALA129     -0.2715
     52  CB         2.6420   33.8680   -0.6060 C.3   129  ALA129      0.0334
     53  N         -0.3980   32.9320   -0.6890 N.am  130  CYS130     -0.1968
     54  CA        -1.5270   32.3820    0.0390 C.3   130  CYS130      0.1712
     55  C         -1.1000   31.9040    1.4180 C.2   130  CYS130      0.2296
     56  O          0.0530   31.5580    1.6420 O.2   130  CYS130     -0.2864
     57  CB        -2.1580   31.2170   -0.7230 C.3   130  CYS130      0.0983
     58  SG        -3.0820   31.7190   -2.1910 S.3   130  CYS130     -0.0798
     59  N         -6.7630   32.5380    1.1200 N.3   165  TYR165     -0.1227
     60  CA        -6.2210   32.6440   -0.2260 C.3   165  TYR165      0.1736
     61  C         -5.8040   34.0930   -0.4200 C.2   165  TYR165      0.2596
     62  O         -6.3730   34.9890    0.1880 O.2   165  TYR165     -0.2718
     63  CB        -7.3350   32.3880   -1.2590 C.3   165  TYR165      0.0548
     64  CG        -7.6620   30.9350   -1.6220 C.ar  165  TYR165     -0.0200
     65  CD1       -8.8610   30.3570   -1.2530 C.ar  165  TYR165     -0.0009
     66  CD2       -6.7970   30.1830   -2.3880 C.ar  165  TYR165     -0.0009
     67  CE1       -9.1700   29.0610   -1.6160 C.ar  165  TYR165      0.0417
     68  CE2       -7.0920   28.8960   -2.7420 C.ar  165  TYR165      0.0417
     69  CZ        -8.2740   28.3390   -2.3650 C.ar  165  TYR165      0.1957
     70  OH        -8.5350   27.0360   -2.7350 O.3   165  TYR165     -0.2866
     71  N         -4.8430   34.3260   -1.3030 N.am  166  SER166     -0.1938
     72  CA        -4.4460   35.6790   -1.6410 C.3   166  SER166      0.2055
     73  C         -4.6570   35.8450   -3.1380 C.2   166  SER166      0.2643
     74  O         -4.2500   34.9870   -3.9210 O.2   166  SER166     -0.2714
     75  CB        -2.9880   35.8860   -1.2720 C.3   166  SER166      0.2130
     76  OG        -2.5410   37.1510   -1.6800 O.3   166  SER166     -0.2179
     77  N         -5.2610   36.9530   -3.5480 N.am  167  TRP167     -0.1959
     78  CA        -5.6570   37.1380   -4.9580 C.3   167  TRP167      0.1771
     79  C         -4.6770   37.8680   -5.8920 C.2   167  TRP167      0.2620
     80  O         -4.1290   38.9200   -5.5590 O.2   167  TRP167     -0.2715
     81  CB        -7.0530   37.7600   -5.0180 C.3   167  TRP167      0.0590
     82  CG        -8.0720   36.8720   -4.3990 C.ar  167  TRP167      0.0006
     83  CD1       -8.3780   36.7670   -3.0640 C.ar  167  TRP167      0.0946
     84  CD2       -8.9030   35.9240   -5.0720 C.ar  167  TRP167      0.0152
     85  NE1       -9.3580   35.8220   -2.8760 N.ar  167  TRP167     -0.2442
     86  CE2       -9.6950   35.2860   -4.0940 C.ar  167  TRP167      0.0810
     87  CE3       -9.0550   35.5390   -6.4080 C.ar  167  TRP167      0.0012
     88  CZ2      -10.6200   34.2890   -4.4120 C.ar  167  TRP167      0.0191
     89  CZ3       -9.9660   34.5470   -6.7160 C.ar  167  TRP167      0.0001
     90  CH2      -10.7420   33.9430   -5.7240 C.ar  167  TRP167      0.0015
     91  N         -4.4880   37.3110   -7.0820 N.am  168  ARG168     -0.1963
     92  CA        -3.5680   37.8730   -8.0590 C.3   168  ARG168      0.1729
     93  C         -4.2220   37.9430   -9.4290 C.2   168  ARG168      0.2616
     94  O         -4.6540   36.9260   -9.9520 O.2   168  ARG168     -0.2715
     95  CB        -2.3070   37.0110   -8.1380 C.3   168  ARG168      0.0348
     96  CG        -1.4470   37.2640   -9.3600 C.3   168  ARG168      0.0492
     97  CD        -0.1880   36.4070   -9.3950 C.3   168  ARG168      0.2205
     98  NE        -0.5050   35.0220   -9.0890 N.pl3 168  ARG168     -0.0865
     99  CZ        -0.9290   34.1470   -9.9920 C.cat 168  ARG168      0.5346
    100  NH1       -1.2090   32.9010   -9.6120 N.pl3 168  ARG168      0.1354
    101  NH2       -1.0630   34.5160  -11.2740 N.pl3 168  ARG168      0.1354
    102  N         -4.2860   39.1430  -10.0020 N.am  169  ASN169     -0.1958
    103  CA        -4.8710   39.3180  -11.3180 C.3   169  ASN169      0.1819
    104  C         -3.8570   39.1750  -12.4510 C.2   169  ASN169      0.2622
    105  O         -2.8080   39.8130  -12.4490 O.2   169  ASN169     -0.2715
    106  CB        -5.5650   40.6570  -11.4460 C.3   169  ASN169      0.1195
    107  CG        -5.8480   41.0040  -12.8840 C.2   169  ASN169      0.2630
    108  OD1       -4.9380   41.0960  -13.7070 O.2   169  ASN169     -0.2716
    109  ND2       -7.1140   41.1710  -13.2040 N.am  169  ASN169     -0.0877
    110  N         -4.2280   38.3820  -13.4450 N.am  170  SER170     -0.1950
    111  CA        -3.3600   38.0350  -14.5680 C.3   170  SER170      0.1924
    112  C         -2.6840   39.1850  -15.2960 C.2   170  SER170      0.2314
    113  O         -1.5760   39.0210  -15.7920 O.2   170  SER170     -0.2863
    114  CB        -4.1380   37.2170  -15.6060 C.3   170  SER170      0.2116
    115  OG        -4.5890   35.9920  -15.0580 O.3   170  SER170     -0.2180
    116  N         -3.5720   41.9840   -6.0020 N.3   175  TRP175     -0.1241
    117  CA        -4.3860   43.0800   -5.4950 C.3   175  TRP175      0.1605
    118  C         -3.5580   43.8420   -4.4660 C.2   175  TRP175      0.2264
    119  O         -3.5330   45.0590   -4.4490 O.2   175  TRP175     -0.2867
    120  CB        -5.6720   42.5540   -4.8220 C.3   175  TRP175      0.0550
    121  CG        -6.6500   41.8710   -5.7340 C.ar  175  TRP175      0.0003
    122  CD1       -6.5770   41.7610   -7.1000 C.ar  175  TRP175      0.0946
    123  CD2       -7.8580   41.1950   -5.3490 C.ar  175  TRP175      0.0152
    124  NE1       -7.6620   41.0620   -7.5770 N.ar  175  TRP175     -0.2442
    125  CE2       -8.4630   40.7080   -6.5240 C.ar  175  TRP175      0.0810
    126  CE3       -8.4980   40.9650   -4.1270 C.ar  175  TRP175      0.0012
    127  CZ2       -9.6580   40.0000   -6.5090 C.ar  175  TRP175      0.0191
    128  CZ3       -9.6820   40.2610   -4.1160 C.ar  175  TRP175      0.0001
    129  CH2      -10.2510   39.7850   -5.2970 C.ar  175  TRP175      0.0015
    130  N        -12.7940   42.7830   -5.8910 N.3   209  GLU209     -0.1231
    131  CA       -13.6450   41.6020   -5.7600 C.3   209  GLU209      0.1699
    132  C        -13.3720   40.6320   -6.8960 C.2   209  GLU209      0.2593
    133  O        -13.3350   41.0350   -8.0490 O.2   209  GLU209     -0.2718
    134  CB       -15.1210   41.9570   -5.7470 C.3   209  GLU209      0.0402
    135  CG       -15.9780   40.7560   -5.3990 C.3   209  GLU209      0.1161
    136  CD       -17.4600   41.0750   -5.3800 C.2   209  GLU209      0.3649
    137  OE1      -17.8400   42.0650   -4.7180 O.co2 209  GLU209     -0.2457
    138  OE2      -18.2410   40.3460   -6.0360 O.co2 209  GLU209     -0.2457
    139  N        -13.2010   39.3490   -6.5810 N.am  210  SER210     -0.1938
    140  CA       -12.8900   38.3750   -7.6220 C.3   210  SER210      0.2055
    141  C        -14.0430   38.2020   -8.5930 C.2   210  SER210      0.2643
    142  O        -15.2050   38.3570   -8.2270 O.2   210  SER210     -0.2714
    143  CB       -12.5110   37.0100   -7.0310 C.3   210  SER210      0.2130
    144  OG       -13.6520   36.2600   -6.6020 O.3   210  SER210     -0.2179
    145  N        -13.6980   37.8720   -9.8320 N.am  211  PHE211     -0.1959
    146  CA       -14.6620   37.5560  -10.8600 C.3   211  PHE211      0.1771
    147  C        -14.1770   36.2820  -11.4640 C.2   211  PHE211      0.2620
    148  O        -13.0530   36.2280  -11.9800 O.2   211  PHE211     -0.2715
    149  CB       -14.6710   38.5980  -11.9560 C.3   211  PHE211      0.0574
    150  CG       -15.4400   38.1720  -13.1650 C.ar  211  PHE211     -0.0200
    151  CD1      -14.7940   37.6150  -14.2430 C.ar  211  PHE211     -0.0042
    152  CD2      -16.8180   38.3070  -13.2100 C.ar  211  PHE211     -0.0042
    153  CE1      -15.5070   37.2130  -15.3610 C.ar  211  PHE211     -0.0003
    154  CE2      -17.5340   37.9000  -14.3210 C.ar  211  PHE211     -0.0003
    155  CZ       -16.8720   37.3510  -15.3990 C.ar  211  PHE211     -0.0000
    156  N        -15.0080   35.2500  -11.4200 N.am  212  SER212     -0.1950
    157  CA       -14.5870   33.9760  -11.9560 C.3   212  SER212      0.1924
    158  C        -15.7450   33.2180  -12.5630 C.2   212  SER212      0.2314
    159  O        -16.8780   33.3160  -12.0850 O.2   212  SER212     -0.2863
    160  CB       -13.9650   33.1370  -10.8530 C.3   212  SER212      0.2116
    161  OG       -13.5170   31.9050  -11.3790 O.3   212  SER212     -0.2180
    162  N        -16.0350   30.1880  -12.4090 N.3   214  ASP214     -0.1239
    163  CA       -16.2940   29.1090  -11.4710 C.3   214  ASP214      0.1674
    164  C        -16.8870   29.6740  -10.1870 C.2   214  ASP214      0.2266
    165  O        -16.1920   30.3190   -9.4170 O.2   214  ASP214     -0.2867
    166  CB       -14.9760   28.3970  -11.1770 C.3   214  ASP214      0.1410
    167  CG       -15.1110   27.2810  -10.1620 C.2   214  ASP214      0.3668
    168  OD1      -16.1360   27.2060   -9.4470 O.co2 214  ASP214     -0.2456
    169  OD2      -14.2170   26.4280  -10.0120 O.co2 214  ASP214     -0.2456
    170  N        -14.9920   30.3250   -6.9420 N.3   217  PHE217     -0.1241
    171  CA       -14.0170   31.3990   -6.7690 C.3   217  PHE217      0.1605
    172  C        -14.5020   32.7710   -7.1830 C.2   217  PHE217      0.2264
    173  O        -13.7230   33.7130   -7.2420 O.2   217  PHE217     -0.2867
    174  CB       -12.7020   31.0620   -7.4710 C.3   217  PHE217      0.0534
    175  CG       -12.0330   29.8510   -6.9090 C.ar  217  PHE217     -0.0203
    176  CD1      -11.9680   28.6780   -7.6420 C.ar  217  PHE217     -0.0042
    177  CD2      -11.4990   29.8750   -5.6260 C.ar  217  PHE217     -0.0042
    178  CE1      -11.3700   27.5510   -7.1190 C.ar  217  PHE217     -0.0003
    179  CE2      -10.8990   28.7480   -5.0930 C.ar  217  PHE217     -0.0003
    180  CZ       -10.8370   27.5830   -5.8420 C.ar  217  PHE217     -0.0000
@<TRIPOS>BOND
     1   113   112    2
     2   114   115    1
     3   114   111    1
     4   155   153   ar
     5   155   154   ar
     6   153   151   ar
     7   112   111    1
     8   111   110    1
     9   154   152   ar
    10   151   150   ar
    11   108   107    2
    12   110   104   am
    13   152   150   ar
    14   109   107   am
    15   150   149    1
    16   107   106    1
    17   158   159    2
    18   158   157    1
    19    10    11    2
    20    10     9    1
    21   104   105    2
    22   104   103    1
    23   162   163    1
    24     8     9    1
    25     7     5    1
    26     3     2    1
    27     3     4    2
    28     2     5    1
    29     2     1    1
    30   148   147    2
    31     5     6    1
    32   149   146    1
    33   157   156    1
    34   157   160    1
    35     9    12    1
    36   163   166    1
    37   163   164    1
    38   147   156   am
    39   147   146    1
    40   106   103    1
    41   161   160    1
    42   103   102    1
    43   101    99    1
    44   166   167    1
    45   146   145    1
    46    12    13    1
    47   164   165    2
    48   167   169   ar
    49   167   168   ar
    50   102    93   am
    51    99   100    1
    52    99    98    2
    53    94    93    2
    54   145   141   am
    55    93    92    1
    56    97    96    1
    57    97    98    1
    58    96    95    1
    59    13    14    1
    60   141   142    2
    61   141   140    1
    62    34    33   ar
    63    34    32   ar
    64    95    92    1
    65    92    91    1
    66   133   132    2
    67    17    16    1
    68    33    31   ar
    69    14    15    1
    70   176   178   ar
    71   176   175   ar
    72   140   143    1
    73   140   139    1
    74   124   122   ar
    75   124   125   ar
    76   174   175    1
    77   174   171    1
    78    16    15    2
    79    16    18    1
    80    32    30   ar
    81   173   172    2
    82   172   171    1
    83   178   180   ar
    84   122   121   ar
    85    91    79   am
    86   143   144    1
    87   170   171    1
    88   175   177   ar
    89   132   139   am
    90   132   131    1
    91    89    87   ar
    92    89    90   ar
    93   125   127   ar
    94   125   123   ar
    95   127   129   ar
    96    31    30   ar
    97    87    84   ar
    98    30    29    1
    99   138   136   ar
   100   116   117    1
   101    79    80    2
   102    79    78    1
   103   130   131    1
   104   180   179   ar
   105   131   134    1
   106   134   135    1
   107   121   123   ar
   108   121   120    1
   109    90    88   ar
   110   177   179   ar
   111   117   120    1
   112   117   118    1
   113   135   136    1
   114   136   137   ar
   115   123   126   ar
   116   129   128   ar
   117    84    82   ar
   118    84    86   ar
   119    81    78    1
   120    81    82    1
   121    78    77    1
   122    20    19    1
   123    20    21    1
   124    20    23    1
   125    29    26    1
   126    25    21   am
   127    25    26    1
   128   118   119    2
   129    24    23    1
   130    88    86   ar
   131    82    83   ar
   132    21    22    2
   133   126   128   ar
   134    86    85   ar
   135    26    27    1
   136    44    45    1
   137    44    43    1
   138    74    73    2
   139    47    45   am
   140    45    46    2
   141    77    73   am
   142    73    72    1
   143    83    85   ar
   144    43    40    1
   145    68    66   ar
   146    68    69   ar
   147    70    69    1
   148    42    41    2
   149    27    28    2
   150    27    35    1
   151    66    64   ar
   152    69    67   ar
   153    58    57    1
   154    41    40    1
   155    41    48   am
   156    35    36    2
   157    76    75    1
   158    72    71    1
   159    72    75    1
   160    64    63    1
   161    64    65   ar
   162    67    65   ar
   163    40    39    1
   164    71    61   am
   165    63    60    1
   166    49    48    1
   167    49    52    1
   168    49    50    1
   169    57    54    1
   170    53    50   am
   171    53    54    1
   172    61    60    1
   173    61    62    2
   174    36    37    1
   175    50    51    2
   176    60    59    1
   177    38    37    2
   178    54    55    1
   179    55    56    2
