@<TRIPOS>MOLECULE
tmp/1nmsB00.pdb
 195 195 0 0 0
SMALL
GASTEIGER

@<TRIPOS>ATOM
      1  N         14.9130   -3.6010  -13.4440 N.3    28  MET28      -0.1230
      2  CA        15.9060   -3.2580  -12.4150 C.3    28  MET28       0.1702
      3  C         17.3380   -3.3030  -12.9370 C.2    28  MET28       0.2593
      4  O         17.7360   -4.2660  -13.5990 O.2    28  MET28      -0.2718
      5  CB        15.7960   -4.1800  -11.1840 C.3    28  MET28       0.0401
      6  CG        14.4560   -4.1030  -10.4150 C.3    28  MET28       0.0596
      7  SD        14.2730   -2.4650   -9.6630 S.3    28  MET28      -0.1393
      8  CE        12.5410   -2.5280   -9.2880 C.3    28  MET28       0.0692
      9  N         18.1190   -2.2840  -12.5650 N.am   29  THR29      -0.1953
     10  CA        19.5310   -2.2080  -12.9580 C.3    29  THR29       0.1897
     11  C         20.3800   -3.1600  -12.0880 C.2    29  THR29       0.2313
     12  O         20.0110   -3.5260  -10.9750 O.2    29  THR29      -0.2863
     13  CB        20.1030   -0.7500  -12.8030 C.3    29  THR29       0.1794
     14  OG1       19.8790   -0.3000  -11.4820 O.3    29  THR29      -0.2208
     15  CG2       19.3590    0.2590  -13.6420 C.3    29  THR29       0.0378
     16  N         23.0460   -4.3020   -9.5740 N.3    31  ARG31      -0.1245
     17  CA        23.3880   -3.6140   -8.3350 C.3    31  ARG31       0.1563
     18  C         24.8900   -3.5970   -8.0920 C.2    31  ARG31       0.2260
     19  O         25.4060   -4.2370   -7.1660 O.2    31  ARG31      -0.2867
     20  CB        22.6480   -4.2790   -7.1550 C.3    31  ARG31       0.0307
     21  CG        21.1070   -4.1180   -7.2590 C.3    31  ARG31       0.0489
     22  CD        20.2970   -4.8050   -6.0540 C.3    31  ARG31       0.2205
     23  NE        20.7150   -4.1490   -4.8140 N.pl3  31  ARG31      -0.0865
     24  CZ        21.5700   -4.6750   -3.9640 C.cat  31  ARG31       0.5346
     25  NH1       22.0660   -5.8990   -4.1730 N.pl3  31  ARG31       0.1354
     26  NH2       21.9580   -3.9690   -2.9110 N.pl3  31  ARG31       0.1354
     27  N         19.1140   -6.3070   -2.0810 N.3    87  SER87      -0.1202
     28  CA        18.4160   -6.3260   -3.3610 C.3    87  SER87       0.2020
     29  C         17.7350   -5.0260   -3.6150 C.2    87  SER87       0.2619
     30  O         17.8890   -4.0730   -2.8510 O.2    87  SER87      -0.2717
     31  CB        17.3510   -7.4390   -3.2980 C.3    87  SER87       0.2103
     32  OG        16.9270   -7.7580   -4.6090 O.3    87  SER87      -0.2182
     33  N         17.0000   -4.9450   -4.7260 N.am   88  HIS88      -0.1961
     34  CA        16.0770   -3.8180   -4.8980 C.3    88  HIS88       0.1787
     35  C         14.8990   -4.0550   -3.9880 C.2    88  HIS88       0.2620
     36  O         14.6180   -5.1910   -3.6200 O.2    88  HIS88      -0.2715
     37  CB        15.5950   -3.7670   -6.3650 C.3    88  HIS88       0.0785
     38  CG        16.6670   -3.2940   -7.2980 C.ar   88  HIS88       0.0821
     39  ND1       17.0610   -1.9700   -7.3660 N.ar   88  HIS88      -0.2267
     40  CD2       17.4730   -3.9750   -8.1540 C.ar   88  HIS88       0.1154
     41  CE1       18.0350   -1.8520   -8.2560 C.ar   88  HIS88       0.1986
     42  NE2       18.3110   -3.0530   -8.7390 N.ar   88  HIS88      -0.2212
     43  N         14.1990   -2.9820   -3.6330 N.am   89  GLY89      -0.1954
     44  CA        12.9730   -3.1520   -2.8390 C.3    89  GLY89       0.1869
     45  C         12.0280   -1.9730   -2.9060 C.2    89  GLY89       0.2309
     46  O         12.3090   -0.9350   -3.5210 O.2    89  GLY89      -0.2863
     47  N         19.2070   -4.3210    3.1270 N.3   128  GLN128     -0.1231
     48  CA        19.6970   -3.2480    2.2680 C.3   128  GLN128      0.1698
     49  C         18.8420   -3.2710    1.0210 C.2   128  GLN128      0.2592
     50  O         19.0410   -4.1240    0.1650 O.2   128  GLN128     -0.2718
     51  CB        21.1550   -3.5060    1.8830 C.3   128  GLN128      0.0381
     52  CG        21.6880   -2.5740    0.7780 C.3   128  GLN128      0.0905
     53  CD        21.4990   -1.1130    1.0690 C.2   128  GLN128      0.2608
     54  OE1       21.7520   -0.6540    2.1760 O.2   128  GLN128     -0.2717
     55  NE2       21.0760   -0.3770    0.0650 N.am  128  GLN128     -0.0878
     56  N         17.9040   -2.3260    0.9240 N.am  129  ALA129     -0.1966
     57  CA        16.9800   -2.2380   -0.2060 C.3   129  ALA129      0.1728
     58  C         16.1810   -0.9780   -0.0010 C.2   129  ALA129      0.2616
     59  O         16.0010   -0.5140    1.1290 O.2   129  ALA129     -0.2715
     60  CB        16.0070   -3.4450   -0.2310 C.3   129  ALA129      0.0334
     61  N         15.6590   -0.4220   -1.0860 N.am  130  CYS130     -0.1968
     62  CA        14.8810    0.8200   -0.9110 C.3   130  CYS130      0.1712
     63  C         13.5540    0.4720   -0.2710 C.2   130  CYS130      0.2296
     64  O         13.1120   -0.7200   -0.3040 O.2   130  CYS130     -0.2864
     65  CB        14.5530    1.3850   -2.2500 C.3   130  CYS130      0.0983
     66  SG        16.0450    2.1850   -3.0250 S.3   130  CYS130     -0.0798
     67  N         10.9490    2.6500   -0.8850 N.3   132  GLY132     -0.1225
     68  CA        10.1700    3.6680   -1.5620 C.3   132  GLY132      0.1811
     69  C         11.0960    4.5560   -2.3810 C.2   132  GLY132      0.2280
     70  O         12.2810    4.2370   -2.5390 O.2   132  GLY132     -0.2866
     71  N         14.5300    6.0730   -0.3800 N.3   167  TYR167     -0.1227
     72  CA        15.5980    5.4550   -1.1850 C.3   167  TYR167      0.1736
     73  C         16.6990    4.9770   -0.2730 C.2   167  TYR167      0.2596
     74  O         16.8150    5.4310    0.8670 O.2   167  TYR167     -0.2718
     75  CB        16.2120    6.5690   -1.9980 C.3   167  TYR167      0.0548
     76  CG        16.9970    6.2460   -3.2400 C.ar  167  TYR167     -0.0200
     77  CD1       16.3800    5.7050   -4.3760 C.ar  167  TYR167     -0.0009
     78  CD2       18.3340    6.6000   -3.3290 C.ar  167  TYR167     -0.0009
     79  CE1       17.1050    5.4800   -5.5530 C.ar  167  TYR167      0.0417
     80  CE2       19.0490    6.4080   -4.5080 C.ar  167  TYR167      0.0417
     81  CZ        18.4230    5.8630   -5.6060 C.ar  167  TYR167      0.1957
     82  OH        19.1310    5.6750   -6.7680 O.3   167  TYR167     -0.2866
     83  N         17.5390    4.0770   -0.7950 N.am  168  SER168     -0.1938
     84  CA        18.6850    3.5610   -0.0640 C.3   168  SER168      0.2055
     85  C         19.8890    3.5730   -0.9880 C.2   168  SER168      0.2643
     86  O         19.8450    3.0040   -2.0580 O.2   168  SER168     -0.2714
     87  CB        18.4280    2.1300    0.3950 C.3   168  SER168      0.2130
     88  OG        19.4590    1.7090    1.2690 O.3   168  SER168     -0.2179
     89  N         20.9360    4.2520   -0.5700 N.am  169  TRP169     -0.1959
     90  CA        22.1140    4.5050   -1.4020 C.3   169  TRP169      0.1771
     91  C         23.1690    3.4200   -1.4260 C.2   169  TRP169      0.2620
     92  O         23.5120    2.8060   -0.4020 O.2   169  TRP169     -0.2715
     93  CB        22.7440    5.8470   -0.9190 C.3   169  TRP169      0.0590
     94  CG        21.9430    7.0390   -1.3270 C.ar  169  TRP169      0.0006
     95  CD1       20.9160    7.6270   -0.6390 C.ar  169  TRP169      0.0946
     96  CD2       22.0810    7.7890   -2.5480 C.ar  169  TRP169      0.0152
     97  NE1       20.4370    8.7270   -1.3320 N.ar  169  TRP169     -0.2442
     98  CE2       21.1370    8.8340   -2.5120 C.ar  169  TRP169      0.0810
     99  CE3       22.9390    7.6930   -3.6620 C.ar  169  TRP169      0.0012
    100  CZ2       21.0070    9.7420   -3.5380 C.ar  169  TRP169      0.0191
    101  CZ3       22.8170    8.6140   -4.6660 C.ar  169  TRP169      0.0001
    102  CH2       21.8710    9.6210   -4.6040 C.ar  169  TRP169      0.0015
    103  N         23.7540    3.2310   -2.6100 N.am  170  ARG170     -0.1963
    104  CA        24.7510    2.1840   -2.8120 C.3   170  ARG170      0.1729
    105  C         25.7500    2.7800   -3.7600 C.2   170  ARG170      0.2616
    106  O         25.4100    3.4860   -4.6970 O.2   170  ARG170     -0.2715
    107  CB        24.0850    0.9450   -3.4120 C.3   170  ARG170      0.0348
    108  CG        25.0340   -0.1070   -3.9700 C.3   170  ARG170      0.0492
    109  CD        24.3480   -1.4100   -4.4270 C.3   170  ARG170      0.2205
    110  NE        23.1230   -1.1730   -5.1960 N.pl3 170  ARG170     -0.0865
    111  CZ        23.0820   -0.6730   -6.4090 C.cat 170  ARG170      0.5346
    112  NH1       21.9000   -0.4930   -7.0050 N.pl3 170  ARG170      0.1354
    113  NH2       24.2350   -0.4120   -7.0660 N.pl3 170  ARG170      0.1354
    114  N         26.9940    2.4900   -3.4710 N.am  171  ASN171     -0.1958
    115  CA        28.0810    3.0180   -4.2240 C.3   171  ASN171      0.1819
    116  C         28.6890    1.8540   -5.0080 C.2   171  ASN171      0.2622
    117  O         28.9370    0.7300   -4.4990 O.2   171  ASN171     -0.2715
    118  CB        29.0150    3.7100   -3.2110 C.3   171  ASN171      0.1195
    119  CG        30.2380    4.2260   -3.8180 C.2   171  ASN171      0.2630
    120  OD1       31.1410    3.4510   -4.0860 O.2   171  ASN171     -0.2716
    121  ND2       30.3280    5.5700   -3.9900 N.am  171  ASN171     -0.0877
    122  N         28.9270    2.1280   -6.2680 N.am  172  SER172     -0.1950
    123  CA        29.3460    1.0920   -7.1530 C.3   172  SER172      0.1924
    124  C         30.6680    0.4950   -6.7640 C.2   172  SER172      0.2314
    125  O         30.9210   -0.6460   -7.0870 O.2   172  SER172     -0.2863
    126  CB        29.2990    1.5960   -8.6110 C.3   172  SER172      0.2116
    127  OG        29.6640    2.9780   -8.7080 O.3   172  SER172     -0.2180
    128  N         26.0100    2.4880    1.6280 N.3   177  TRP177     -0.1241
    129  CA        26.2720    3.2690    2.8140 C.3   177  TRP177      0.1605
    130  C         25.9560    2.4910    4.0890 C.2   177  TRP177      0.2264
    131  O         26.7610    2.4710    5.0220 O.2   177  TRP177     -0.2867
    132  CB        25.4240    4.5390    2.8280 C.3   177  TRP177      0.0550
    133  CG        25.6410    5.4700    1.6590 C.ar  177  TRP177      0.0003
    134  CD1       26.4680    5.2820    0.5780 C.ar  177  TRP177      0.0946
    135  CD2       25.0170    6.7490    1.4710 C.ar  177  TRP177      0.0152
    136  NE1       26.4090    6.3810   -0.2550 N.ar  177  TRP177     -0.2442
    137  CE2       25.5330    7.3110    0.2740 C.ar  177  TRP177      0.0810
    138  CE3       24.0820    7.4900    2.2060 C.ar  177  TRP177      0.0012
    139  CZ2       25.1150    8.5630   -0.2220 C.ar  177  TRP177      0.0191
    140  CZ3       23.6850    8.7590    1.7220 C.ar  177  TRP177      0.0001
    141  CH2       24.2060    9.2820    0.5200 C.ar  177  TRP177      0.0015
    142  N         27.8460   10.4840    5.1460 N.3   210  PHE210     -0.1227
    143  CA        27.5040   10.2970    3.7470 C.3   210  PHE210      0.1736
    144  C         26.5810   11.3800    3.2030 C.2   210  PHE210      0.2595
    145  O         25.6170   11.7960    3.8370 O.2   210  PHE210     -0.2718
    146  CB        26.7730    8.9370    3.5560 C.3   210  PHE210      0.0547
    147  CG        27.6310    7.7410    3.8910 C.ar  210  PHE210     -0.0202
    148  CD1       28.2850    7.0140    2.8870 C.ar  210  PHE210     -0.0042
    149  CD2       27.7740    7.3300    5.2210 C.ar  210  PHE210     -0.0042
    150  CE1       29.0860    5.9110    3.2140 C.ar  210  PHE210     -0.0003
    151  CE2       28.5570    6.2210    5.5600 C.ar  210  PHE210     -0.0003
    152  CZ        29.2350    5.5290    4.5470 C.ar  210  PHE210     -0.0000
    153  N         26.8960   11.8300    1.9870 N.am  211  GLU211     -0.1965
    154  CA        26.0270   12.7570    1.2710 C.3   211  GLU211      0.1733
    155  C         26.2380   12.5660   -0.2220 C.2   211  GLU211      0.2617
    156  O         27.3930   12.4590   -0.6750 O.2   211  GLU211     -0.2715
    157  CB        26.3030   14.2210    1.6700 C.3   211  GLU211      0.0429
    158  CG        25.6100   15.2180    0.7630 C.3   211  GLU211      0.1163
    159  CD        25.7150   16.6570    1.2400 C.2   211  GLU211      0.3649
    160  OE1       25.7720   16.9110    2.4630 O.co2 211  GLU211     -0.2457
    161  OE2       25.7210   17.5180    0.3670 O.co2 211  GLU211     -0.2457
    162  N         25.1580   12.4820   -0.9980 N.am  212  SER212     -0.1936
    163  CA        25.3560   12.1010   -2.3980 C.3   212  SER212      0.2055
    164  C         25.8690   13.3070   -3.1550 C.2   212  SER212      0.2643
    165  O         25.6700   14.4420   -2.7280 O.2   212  SER212     -0.2714
    166  CB        24.0470   11.5880   -3.0700 C.3   212  SER212      0.2130
    167  OG        23.1340   12.6600   -3.1950 O.3   212  SER212     -0.2179
    168  N         26.5690   13.0360   -4.2540 N.am  213  PHE213     -0.1959
    169  CA        26.9820   14.0920   -5.1960 C.3   213  PHE213      0.1771
    170  C         26.5210   13.6350   -6.5840 C.2   213  PHE213      0.2620
    171  O         26.8560   12.5140   -7.0240 O.2   213  PHE213     -0.2715
    172  CB        28.5310   14.2160   -5.1840 C.3   213  PHE213      0.0574
    173  CG        29.0410   15.1990   -6.2040 C.ar  213  PHE213     -0.0200
    174  CD1       29.3860   14.7730   -7.4860 C.ar  213  PHE213     -0.0042
    175  CD2       29.0650   16.5420   -5.9140 C.ar  213  PHE213     -0.0042
    176  CE1       29.8200   15.7090   -8.4470 C.ar  213  PHE213     -0.0003
    177  CE2       29.4750   17.4670   -6.8680 C.ar  213  PHE213     -0.0003
    178  CZ        29.8420   17.0240   -8.1400 C.ar  213  PHE213     -0.0000
    179  N         25.7460   14.4760   -7.2740 N.am  214  SER214     -0.1950
    180  CA        25.2690   14.1100   -8.6010 C.3   214  SER214      0.1924
    181  C         25.1300   15.2770   -9.5400 C.2   214  SER214      0.2314
    182  O         24.7640   16.3540   -9.1080 O.2   214  SER214     -0.2863
    183  CB        23.8620   13.4790   -8.4520 C.3   214  SER214      0.2116
    184  OG        23.3650   13.0640   -9.7220 O.3   214  SER214     -0.2180
    185  N         19.1170   14.1280   -7.6670 N.3   219  PHE219     -0.1241
    186  CA        19.7680   13.1060   -6.8670 C.3   219  PHE219      0.1605
    187  C         20.9280   13.6690   -6.0990 C.2   219  PHE219      0.2264
    188  O         21.7270   12.9290   -5.5370 O.2   219  PHE219     -0.2867
    189  CB        20.2970   11.9890   -7.7520 C.3   219  PHE219      0.0534
    190  CG        19.2290   11.0800   -8.2680 C.ar  219  PHE219     -0.0203
    191  CD1       18.5420   11.3900   -9.4440 C.ar  219  PHE219     -0.0042
    192  CD2       18.8780    9.9430   -7.5550 C.ar  219  PHE219     -0.0042
    193  CE1       17.5340   10.5470   -9.9200 C.ar  219  PHE219     -0.0003
    194  CE2       17.8820    9.0970   -8.0200 C.ar  219  PHE219     -0.0003
    195  CZ        17.2120    9.4040   -9.2040 C.ar  219  PHE219     -0.0000
@<TRIPOS>BOND
     1    15    13    1
     2     4     3    2
     3     1     2    1
     4    10    13    1
     5    10     9    1
     6    10    11    1
     7     3     9   am
     8     3     2    1
     9    13    14    1
    10     2     5    1
    11    11    12    2
    12     5     6    1
    13     6     7    1
    14   193   191   ar
    15   193   195   ar
    16   184   183    1
    17     7     8    1
    18    16    17    1
    19   181   182    2
    20   181   180    1
    21   191   190   ar
    22   195   194   ar
    23    42    41   ar
    24    42    40   ar
    25   127   126    1
    26   126   123    1
    27   180   183    1
    28   180   179    1
    29   176   178   ar
    30   176   174   ar
    31    17    18    1
    32    17    20    1
    33   190   189    1
    34   190   192   ar
    35    41    39   ar
    36    40    38   ar
    37   178   177   ar
    38    18    19    2
    39   194   192   ar
    40   189   186    1
    41   185   186    1
    42   174   173   ar
    43    39    38   ar
    44    38    37    1
    45   179   170   am
    46    21    20    1
    47    21    22    1
    48   123   124    1
    49   123   122    1
    50   125   124    2
    51   113   111    1
    52   171   170    2
    53   112   111    1
    54   177   175   ar
    55   186   187    1
    56    82    81    1
    57   170   169    1
    58   111   110    2
    59    37    34    1
    60   122   116   am
    61   173   175   ar
    62   173   172    1
    63   187   188    2
    64    22    23    1
    65    81    79   ar
    66    81    80   ar
    67    79    77   ar
    68   110   109    1
    69   169   172    1
    70   169   168    1
    71   116   117    2
    72   116   115    1
    73    34    33    1
    74    34    35    1
    75    23    24    2
    76    33    29   am
    77   106   105    2
    78   101   102   ar
    79   101    99   ar
    80    32    31    1
    81   102   100   ar
    82    80    78   ar
    83   109   108    1
    84    77    76   ar
    85   168   164   am
    86   115   114    1
    87   115   118    1
    88    25    24    1
    89   120   119    2
    90   121   119   am
    91    35    43   am
    92    35    36    2
    93   108   107    1
    94    24    26    1
    95   119   118    1
    96   105   114   am
    97   105   104    1
    98    99    96   ar
    99    43    44    1
   100    29    28    1
   101    29    30    2
   102   100    98   ar
   103    46    45    2
   104   107   104    1
   105    28    31    1
   106    28    27    1
   107    78    76   ar
   108    76    75    1
   109   167   166    1
   110   164   165    2
   111   164   163    1
   112   166   163    1
   113    66    65    1
   114    45    44    1
   115   104   103    1
   116   103    91   am
   117    96    98   ar
   118    96    94   ar
   119    70    69    2
   120    98    97   ar
   121   163   162    1
   122    69    68    1
   123    65    62    1
   124    86    85    2
   125    75    72    1
   126    68    67    1
   127    91    90    1
   128    91    92    2
   129    90    93    1
   130    90    89    1
   131    97    95   ar
   132    94    93    1
   133    94    95   ar
   134    72    71    1
   135    72    73    1
   136    61    62    1
   137    61    58   am
   138   162   155   am
   139    85    89   am
   140    85    84    1
   141    62    63    1
   142    83    73   am
   143    83    84    1
   144   156   155    2
   145    64    63    2
   146    73    74    2
   147   136   137   ar
   148   136   134   ar
   149    60    57    1
   150   139   137   ar
   151   139   141   ar
   152   155   154    1
   153    57    58    1
   154    57    56    1
   155    84    87    1
   156    58    59    2
   157    55    53   am
   158    50    49    2
   159   137   135   ar
   160   161   159   ar
   161    87    88    1
   162   141   140   ar
   163   134   133   ar
   164   158   159    1
   165   158   157    1
   166    52    53    1
   167    52    51    1
   168    56    49   am
   169    49    48    1
   170    53    54    2
   171   159   160   ar
   172   154   157    1
   173   154   153    1
   174   135   133   ar
   175   135   138   ar
   176   128   129    1
   177   133   132    1
   178   140   138   ar
   179    51    48    1
   180   153   144   am
   181    48    47    1
   182   129   132    1
   183   129   130    1
   184   148   150   ar
   185   148   147   ar
   186   144   143    1
   187   144   145    2
   188   150   152   ar
   189   146   143    1
   190   146   147    1
   191   143   142    1
   192   147   149   ar
   193   130   131    2
   194   152   151   ar
   195   149   151   ar
