@<TRIPOS>MOLECULE
tmp/1nmxA01.pdb
 127 120 0 0 0
SMALL
GASTEIGER

@<TRIPOS>ATOM
      1  N          7.3770   75.4570   33.7320 N.3    13  ASP13      -0.1225
      2  CA         8.4320   74.4420   33.8580 C.3    13  ASP13       0.1805
      3  C          7.9150   73.2810   34.6790 C.2    13  ASP13       0.2598
      4  O          7.2270   73.5080   35.6720 O.2    13  ASP13      -0.2718
      5  CB         9.7270   75.0400   34.3760 C.3    13  ASP13       0.1424
      6  CG        10.9140   74.1120   34.3790 C.2    13  ASP13       0.3668
      7  OD1       11.1140   73.2070   33.5400 O.co2  13  ASP13      -0.2456
      8  OD2       11.7570   74.2750   35.2890 O.co2  13  ASP13      -0.2456
      9  N          8.1620   72.0820   34.1720 N.am   14  ARG14      -0.1966
     10  CA         7.7320   70.8680   34.8330 C.3    14  ARG14       0.1729
     11  C          6.2380   70.6810   34.9050 C.2    14  ARG14       0.2616
     12  O          5.7980   69.7440   35.5830 O.2    14  ARG14      -0.2715
     13  CB         8.2940   70.8320   36.2700 C.3    14  ARG14       0.0348
     14  CG         9.8140   70.8920   36.1840 C.3    14  ARG14       0.0492
     15  CD        10.3530   70.3950   37.5140 C.3    14  ARG14       0.2205
     16  NE        11.3860   71.2920   38.0300 N.pl3  14  ARG14      -0.0865
     17  CZ        10.9880   72.1610   38.9650 C.cat  14  ARG14       0.5346
     18  NH1        9.7020   72.1190   39.3050 N.pl3  14  ARG14       0.1354
     19  NH2       11.8360   73.0060   39.5150 N.pl3  14  ARG14       0.1354
     20  N          5.4970   71.4580   34.0920 N.am   15  ALA15      -0.1963
     21  CA         4.0360   71.2060   34.1180 C.3    15  ALA15       0.1728
     22  C          3.7060   69.9040   33.4100 C.2    15  ALA15       0.2617
     23  O          2.6180   69.3430   33.6460 O.2    15  ALA15      -0.2715
     24  CB         3.2680   72.3570   33.4820 C.3    15  ALA15       0.0334
     25  N          4.6250   69.3910   32.6000 N.am   16  GLY16      -0.1940
     26  CA         4.4160   68.1750   31.8570 C.3    16  GLY16       0.2014
     27  C          4.2280   68.2880   30.3560 C.2    16  GLY16       0.2639
     28  O          3.5590   67.4390   29.7360 O.2    16  GLY16      -0.2714
     29  N          4.7740   69.2820   29.6650 N.am   17  LYS17      -0.1963
     30  CA         4.6980   69.4120   28.2290 C.3    17  LYS17       0.1728
     31  C          5.1850   68.1470   27.5310 C.2    17  LYS17       0.2617
     32  O          4.5590   67.6340   26.6140 O.2    17  LYS17      -0.2715
     33  CB         5.5300   70.5990   27.7160 C.3    17  LYS17       0.0311
     34  CG         5.0420   71.9540   28.2820 C.3    17  LYS17       0.0038
     35  CD         5.9930   73.0570   27.8190 C.3    17  LYS17       0.0206
     36  CE         7.3740   72.9600   28.4710 C.3    17  LYS17       0.1093
     37  NZ         7.3040   73.1810   29.9380 N.3    17  LYS17      -0.1314
     38  N          6.3550   67.6230   27.9250 N.am   18  SER18      -0.1936
     39  CA         6.9180   66.4550   27.2210 C.3    18  SER18       0.2055
     40  C          6.1970   65.1520   27.5640 C.2    18  SER18       0.2644
     41  O          5.8850   64.4220   26.6070 O.2    18  SER18      -0.2714
     42  CB         8.4400   66.3290   27.4400 C.3    18  SER18       0.2130
     43  OG         9.0590   67.6130   27.1580 O.3    18  SER18      -0.2179
     44  N          5.8410   64.9810   28.8290 N.am   19  THR19      -0.1936
     45  CA         5.0700   63.7900   29.2380 C.3    19  THR19       0.2028
     46  C          3.7100   63.7740   28.5090 C.2    19  THR19       0.2642
     47  O          3.3380   62.7670   27.9060 O.2    19  THR19      -0.2714
     48  CB         4.8460   63.8020   30.7480 C.3    19  THR19       0.1808
     49  OG1        6.0900   63.7070   31.4410 O.3    19  THR19      -0.2208
     50  CG2        3.9700   62.6320   31.2330 C.3    19  THR19       0.0379
     51  N          3.0080   64.8970   28.5280 N.am   20  GLN20      -0.1976
     52  CA         1.7010   64.9500   27.8520 C.3    20  GLN20       0.1601
     53  C          1.7960   64.8870   26.3490 C.2    20  GLN20       0.2287
     54  O          0.8440   64.3140   25.7340 O.2    20  GLN20      -0.2864
     55  CB         0.9420   66.1890   28.3840 C.3    20  GLN20       0.0394
     56  CG         0.6810   66.1660   29.8840 C.3    20  GLN20       0.0908
     57  CD        -0.0960   64.9630   30.3840 C.2    20  GLN20       0.2608
     58  OE1       -0.8020   64.2640   29.6340 O.2    20  GLN20      -0.2717
     59  NE2       -0.0630   64.6130   31.6760 N.am   20  GLN20      -0.0878
     60  N          4.0090   63.2120   24.5720 N.3    22  ARG22      -0.1245
     61  CA         4.1920   61.7820   24.2550 C.3    22  ARG22       0.1563
     62  C          2.8860   61.0150   24.4480 C.2    22  ARG22       0.2260
     63  O          2.5930   60.1730   23.5900 O.2    22  ARG22      -0.2867
     64  CB         5.2400   61.1810   25.2070 C.3    22  ARG22       0.0307
     65  CG         6.6660   61.6460   24.8700 C.3    22  ARG22       0.0489
     66  CD         7.6700   60.9140   25.7600 C.3    22  ARG22       0.2205
     67  NE         7.4340   60.9320   27.1920 N.pl3  22  ARG22      -0.0865
     68  CZ         8.0730   61.7870   28.0360 C.cat  22  ARG22       0.5346
     69  NH1        8.9120   62.7090   27.5890 N.pl3  22  ARG22       0.1354
     70  NH2        7.7790   61.6500   29.3110 N.pl3  22  ARG22       0.1354
     71  N          6.4590   72.5980   22.6150 N.3    95  ARG95      -0.1245
     72  CA         6.8810   73.9750   22.5020 C.3    95  ARG95       0.1563
     73  C          6.8900   74.4810   21.0480 C.2    95  ARG95       0.2260
     74  O          7.1670   73.7230   20.0970 O.2    95  ARG95      -0.2867
     75  CB         8.2830   74.3180   23.0240 C.3    95  ARG95       0.0307
     76  CG         8.4340   74.0130   24.5240 C.3    95  ARG95       0.0489
     77  CD         9.8220   74.6140   24.8670 C.3    95  ARG95       0.2205
     78  NE        10.1960   74.3100   26.2280 N.pl3  95  ARG95      -0.0865
     79  CZ         9.9500   75.0700   27.2970 C.cat  95  ARG95       0.5346
     80  NH1        9.2640   76.1910   27.2540 N.pl3  95  ARG95       0.1354
     81  NH2       10.3930   74.6750   28.4990 N.pl3  95  ARG95       0.1354
     82  N          8.0240   68.2210   41.7570 N.3   141  ARG141     -0.1245
     83  CA         8.3170   67.4170   40.5720 C.3   141  ARG141      0.1563
     84  C          9.7980   67.3100   40.2580 C.2   141  ARG141      0.2260
     85  O         10.1920   66.6440   39.2840 O.2   141  ARG141     -0.2867
     86  CB         7.5510   67.9370   39.3330 C.3   141  ARG141      0.0307
     87  CG         6.0820   67.5810   39.4880 C.3   141  ARG141      0.0489
     88  CD         5.2000   68.2090   38.4050 C.3   141  ARG141      0.2205
     89  NE         3.7980   68.0460   38.8050 N.pl3 141  ARG141     -0.0865
     90  CZ         2.7740   68.2710   37.9950 C.cat 141  ARG141      0.5346
     91  NH1        3.0450   68.6440   36.7450 N.pl3 141  ARG141      0.1354
     92  NH2        1.5450   68.1160   38.4450 N.pl3 141  ARG141      0.1354
     93  N         -2.6050   71.5620   34.9950 N.3   178  ALA178     -0.1245
     94  CA        -1.6220   70.4560   35.0140 C.3   178  ALA178      0.1562
     95  C         -1.2620   69.9950   36.3960 C.2   178  ALA178      0.2260
     96  O         -0.3470   69.1650   36.5590 O.2   178  ALA178     -0.2867
     97  CB        -0.4210   70.9640   34.1810 C.3   178  ALA178      0.0290
     98  N         -3.2540   68.1320   38.2980 N.3   180  LYS180     -0.1231
     99  CA        -3.8090   66.8070   38.5500 C.3   180  LYS180      0.1693
    100  C         -2.7780   65.7110   38.2240 C.2   180  LYS180      0.2593
    101  O         -1.6180   65.9760   37.9230 O.2   180  LYS180     -0.2718
    102  CB        -5.0850   66.5740   37.7370 C.3   180  LYS180      0.0285
    103  CG        -6.0920   67.7320   37.7670 C.3   180  LYS180      0.0035
    104  CD        -7.2250   67.3370   36.8150 C.3   180  LYS180      0.0206
    105  CE        -7.9050   68.4830   36.1350 C.3   180  LYS180      0.1093
    106  NZ        -9.2240   68.1020   35.5560 N.3   180  LYS180     -0.1314
    107  N         -3.2040   64.4700   38.3020 N.am  181  SER181     -0.1938
    108  CA        -2.3610   63.3170   38.0330 C.3   181  SER181      0.2055
    109  C         -1.9820   63.2670   36.5430 C.2   181  SER181      0.2642
    110  O         -2.6810   63.9210   35.7590 O.2   181  SER181     -0.2714
    111  CB        -3.1200   62.0410   38.4110 C.3   181  SER181      0.2130
    112  OG        -4.2220   61.8620   37.4960 O.3   181  SER181     -0.2179
    113  N         -0.9130   62.5570   36.2210 N.am  182  ILE182     -0.1977
    114  CA        -0.5200   62.3860   34.8170 C.3   182  ILE182      0.1596
    115  C         -1.7120   61.9470   33.9670 C.2   182  ILE182      0.2287
    116  O         -2.0430   62.5550   32.9450 O.2   182  ILE182     -0.2864
    117  CB         0.6750   61.4220   34.6540 C.3   182  ILE182      0.0276
    118  CG1        1.9190   62.1460   35.1740 C.3   182  ILE182      0.0022
    119  CG2        0.8010   60.9290   33.2190 C.3   182  ILE182      0.0022
    120  CD1        3.1790   61.3190   35.1480 C.3   182  ILE182      0.0001
    121  N         -4.6160   64.7110   33.7240 N.3   185  VAL185     -0.1245
    122  CA        -4.2270   65.8120   32.7990 C.3   185  VAL185      0.1561
    123  C         -4.3420   65.2970   31.3640 C.2   185  VAL185      0.2260
    124  O         -4.8270   65.9830   30.4520 O.2   185  VAL185     -0.2867
    125  CB        -2.8120   66.2850   33.1550 C.3   185  VAL185      0.0252
    126  CG1       -2.3160   67.3330   32.1150 C.3   185  VAL185      0.0019
    127  CG2       -2.7920   66.9290   34.5490 C.3   185  VAL185      0.0019
@<TRIPOS>BOND
     1    74    73    2
     2    73    72    1
     3    72    71    1
     4    72    75    1
     5    75    76    1
     6    63    62    2
     7    61    62    1
     8    61    60    1
     9    61    64    1
    10    76    77    1
    11    77    78    1
    12    65    64    1
    13    65    66    1
    14    54    53    2
    15    66    67    1
    16    78    79    2
    17    53    52    1
    18    41    40    2
    19    32    31    2
    20    43    42    1
    21    67    68    2
    22    39    42    1
    23    39    40    1
    24    39    38    1
    25    80    79    1
    26    79    81    1
    27    31    38   am
    28    31    30    1
    29    40    44   am
    30    69    68    1
    31    33    30    1
    32    33    34    1
    33    35    34    1
    34    35    36    1
    35    52    55    1
    36    52    51    1
    37    47    46    2
    38    68    70    1
    39    30    29    1
    40    55    56    1
    41    36    37    1
    42    46    51   am
    43    46    45    1
    44    44    45    1
    45    45    48    1
    46    58    57    2
    47    29    27   am
    48    28    27    2
    49    56    57    1
    50    27    26    1
    51    57    59   am
    52   124   123    2
    53    48    50    1
    54    48    49    1
    55   123   122    1
    56    26    25    1
    57   126   125    1
    58    25    22   am
    59   122   125    1
    60   122   121    1
    61   116   115    2
    62   125   127    1
    63   119   117    1
    64    22    23    2
    65    22    21    1
    66    24    21    1
    67     7     6   ar
    68     1     2    1
    69     2     5    1
    70     2     3    1
    71   115   114    1
    72    20    21    1
    73    20    11   am
    74     9     3   am
    75     9    10    1
    76    97    94    1
    77     5     6    1
    78     6     8   ar
    79   117   114    1
    80   117   118    1
    81     3     4    2
    82   114   113    1
    83    10    11    1
    84    10    13    1
    85    11    12    2
    86    93    94    1
    87    94    95    1
    88   120   118    1
    89   106   105    1
    90   110   109    2
    91   105   104    1
    92    14    13    1
    93    14    15    1
    94   113   109   am
    95    95    96    2
    96   109   108    1
    97    91    90    1
    98   104   103    1
    99   112   111    1
   100    15    16    1
   101   102   103    1
   102   102    99    1
   103   101   100    2
   104    90    92    1
   105    90    89    2
   106    16    17    2
   107   108   107    1
   108   108   111    1
   109   100   107   am
   110   100    99    1
   111    98    99    1
   112    88    89    1
   113    88    87    1
   114    17    18    1
   115    17    19    1
   116    85    84    2
   117    86    87    1
   118    86    83    1
   119    84    83    1
   120    83    82    1
