@<TRIPOS>MOLECULE
tmp/1nmxA00.pdb
 191 185 0 0 0
SMALL
GASTEIGER

@<TRIPOS>ATOM
      1  N          7.3770   75.4570   33.7320 N.3    13  ASP13      -0.1239
      2  CA         8.4320   74.4420   33.8580 C.3    13  ASP13       0.1674
      3  C          7.9150   73.2810   34.6790 C.2    13  ASP13       0.2266
      4  O          7.2270   73.5080   35.6720 O.2    13  ASP13      -0.2867
      5  CB         9.7270   75.0400   34.3760 C.3    13  ASP13       0.1410
      6  CG        10.9140   74.1120   34.3790 C.2    13  ASP13       0.3668
      7  OD1       11.1140   73.2070   33.5400 O.co2  13  ASP13      -0.2456
      8  OD2       11.7570   74.2750   35.2890 O.co2  13  ASP13      -0.2456
      9  N          4.7740   69.2820   29.6650 N.3    17  LYS17      -0.1231
     10  CA         4.6980   69.4120   28.2290 C.3    17  LYS17       0.1693
     11  C          5.1850   68.1470   27.5310 C.2    17  LYS17       0.2592
     12  O          4.5590   67.6340   26.6140 O.2    17  LYS17      -0.2718
     13  CB         5.5300   70.5990   27.7160 C.3    17  LYS17       0.0285
     14  CG         5.0420   71.9540   28.2820 C.3    17  LYS17       0.0035
     15  CD         5.9930   73.0570   27.8190 C.3    17  LYS17       0.0206
     16  CE         7.3740   72.9600   28.4710 C.3    17  LYS17       0.1093
     17  NZ         7.3040   73.1810   29.9380 N.3    17  LYS17      -0.1314
     18  N          6.3550   67.6230   27.9250 N.am   18  SER18      -0.1952
     19  CA         6.9180   66.4550   27.2210 C.3    18  SER18       0.1924
     20  C          6.1970   65.1520   27.5640 C.2    18  SER18       0.2314
     21  O          5.8850   64.4220   26.6070 O.2    18  SER18      -0.2863
     22  CB         8.4400   66.3290   27.4400 C.3    18  SER18       0.2116
     23  OG         9.0590   67.6130   27.1580 O.3    18  SER18      -0.2180
     24  N         10.3770   71.5640   19.7920 N.3    40  PHE40      -0.1228
     25  CA        11.2990   72.6490   19.5090 C.3    40  PHE40       0.1721
     26  C         11.9470   73.0430   20.8300 C.2    40  PHE40       0.2437
     27  O         11.2460   73.1090   21.8680 O.2    40  PHE40      -0.2733
     28  CB        10.5850   73.8580   18.8290 C.3    40  PHE40       0.0547
     29  CG        10.1610   73.4560   17.4310 C.ar   40  PHE40      -0.0202
     30  CD1        8.8480   73.1670   17.1260 C.ar   40  PHE40      -0.0042
     31  CD2       11.1320   73.3520   16.4190 C.ar   40  PHE40      -0.0042
     32  CE1        8.4870   72.7980   15.8360 C.ar   40  PHE40      -0.0003
     33  CE2       10.7620   72.9510   15.1390 C.ar   40  PHE40      -0.0003
     34  CZ         9.4510   72.6650   14.8180 C.ar   40  PHE40      -0.0000
     35  N         13.2470   73.2810   20.8590 N.am   41  PRO41      -0.2729
     36  CA        14.1000   73.1590   19.7020 C.3    41  PRO41       0.1401
     37  C         14.2720   71.7410   19.1900 C.2    41  PRO41       0.2269
     38  O         14.2410   70.7930   20.0140 O.2    41  PRO41      -0.2865
     39  CB        15.4740   73.6450   20.2380 C.3    41  PRO41       0.0296
     40  CG        15.4250   73.4320   21.7000 C.3    41  PRO41       0.0237
     41  CD        13.9760   73.6720   22.0910 C.3    41  PRO41       0.0939
     42  N         16.8660   69.4880   18.1660 N.3    43  ARG43      -0.1245
     43  CA        18.3160   69.5630   18.3560 C.3    43  ARG43       0.1563
     44  C         19.1240   68.7450   17.3810 C.2    43  ARG43       0.2260
     45  O         20.3680   68.8100   17.4650 O.2    43  ARG43      -0.2867
     46  CB        18.6020   69.1710   19.8110 C.3    43  ARG43       0.0307
     47  CG        17.9370   70.0600   20.8600 C.3    43  ARG43       0.0489
     48  CD        18.4660   69.6100   22.2400 C.3    43  ARG43       0.2205
     49  NE        17.6880   70.1960   23.3100 N.pl3  43  ARG43      -0.0865
     50  CZ        18.2260   70.6980   24.4290 C.cat  43  ARG43       0.5346
     51  NH1       19.5190   70.7060   24.6690 N.pl3  43  ARG43       0.1354
     52  NH2       17.3970   71.2190   25.3190 N.pl3  43  ARG43       0.1354
     53  N         22.1000   75.8860   25.2130 N.3    55  LEU55      -0.1245
     54  CA        21.2570   75.6290   26.3900 C.3    55  LEU55       0.1561
     55  C         22.0220   74.8670   27.4780 C.2    55  LEU55       0.2260
     56  O         21.7030   75.0480   28.6650 O.2    55  LEU55      -0.2867
     57  CB        20.0390   74.8230   25.9170 C.3    55  LEU55       0.0270
     58  CG        19.0350   75.6630   25.1250 C.3    55  LEU55       0.0019
     59  CD1       17.9670   74.7620   24.5020 C.3    55  LEU55       0.0001
     60  CD2       18.4120   76.7460   26.0130 C.3    55  LEU55       0.0001
     61  N         16.6570   80.1090   17.0780 N.3    70  PHE70      -0.1241
     62  CA        15.4630   79.3460   17.5470 C.3    70  PHE70       0.1605
     63  C         14.3320   79.4230   16.5490 C.2    70  PHE70       0.2264
     64  O         13.6560   78.4620   16.2190 O.2    70  PHE70      -0.2867
     65  CB        15.0190   79.9120   18.9250 C.3    70  PHE70       0.0534
     66  CG        15.6750   79.2760   20.1190 C.ar   70  PHE70      -0.0203
     67  CD1       16.5050   80.0540   20.9550 C.ar   70  PHE70      -0.0042
     68  CD2       15.4880   77.9520   20.4350 C.ar   70  PHE70      -0.0042
     69  CE1       17.0800   79.4660   22.0730 C.ar   70  PHE70      -0.0003
     70  CE2       16.0480   77.3800   21.5610 C.ar   70  PHE70      -0.0003
     71  CZ        16.8630   78.1250   22.4150 C.ar   70  PHE70      -0.0000
     72  N         12.5660   76.5100   13.6640 N.3    74  ARG74      -0.1245
     73  CA        11.1930   76.1910   13.2730 C.3    74  ARG74       0.1563
     74  C         10.9850   76.2520   11.7760 C.2    74  ARG74       0.2260
     75  O         10.4410   75.3020   11.1810 O.2    74  ARG74      -0.2867
     76  CB        10.1840   77.1030   13.9920 C.3    74  ARG74       0.0307
     77  CG        10.0160   76.7040   15.4570 C.3    74  ARG74       0.0489
     78  CD         9.1380   77.7390   16.1580 C.3    74  ARG74       0.2205
     79  NE         9.7200   79.1040   16.3730 N.pl3  74  ARG74      -0.0865
     80  CZ        10.5300   79.3420   17.4070 C.cat  74  ARG74       0.5346
     81  NH1       10.9670   78.3550   18.2190 N.pl3  74  ARG74       0.1354
     82  NH2       10.9730   80.5730   17.7010 N.pl3  74  ARG74       0.1354
     83  N          5.8810   69.8280   21.0650 N.3    94  ASP94      -0.1225
     84  CA         6.3310   70.2090   22.4180 C.3    94  ASP94       0.1805
     85  C          7.1250   71.4890   22.3140 C.2    94  ASP94       0.2598
     86  O          8.2860   71.4540   21.9000 O.2    94  ASP94      -0.2718
     87  CB         7.0990   69.0030   22.9500 C.3    94  ASP94       0.1424
     88  CG         7.7010   69.0810   24.3320 C.2    94  ASP94       0.3668
     89  OD1        7.5470   70.1360   25.0140 O.co2  94  ASP94      -0.2456
     90  OD2        8.3740   68.0840   24.7080 O.co2  94  ASP94      -0.2456
     91  N          6.4590   72.5980   22.6150 N.am   95  ARG95      -0.1966
     92  CA         6.8810   73.9750   22.5020 C.3    95  ARG95       0.1729
     93  C          6.8900   74.4810   21.0480 C.2    95  ARG95       0.2616
     94  O          7.1670   73.7230   20.0970 O.2    95  ARG95      -0.2715
     95  CB         8.2830   74.3180   23.0240 C.3    95  ARG95       0.0348
     96  CG         8.4340   74.0130   24.5240 C.3    95  ARG95       0.0492
     97  CD         9.8220   74.6140   24.8670 C.3    95  ARG95       0.2205
     98  NE        10.1960   74.3100   26.2280 N.pl3  95  ARG95      -0.0865
     99  CZ         9.9500   75.0700   27.2970 C.cat  95  ARG95       0.5346
    100  NH1        9.2640   76.1910   27.2540 N.pl3  95  ARG95       0.1354
    101  NH2       10.3930   74.6750   28.4990 N.pl3  95  ARG95       0.1354
    102  N          6.6320   75.7750   20.8660 N.am   96  TYR96      -0.1974
    103  CA         6.6580   76.3780   19.5280 C.3    96  TYR96       0.1639
    104  C          7.0870   77.8450   19.6140 C.2    96  TYR96       0.2290
    105  O          7.9010   78.2050   20.4810 O.2    96  TYR96      -0.2864
    106  CB         5.2800   76.2210   18.8690 C.3    96  TYR96       0.0560
    107  CG         5.0560   76.3560   17.3860 C.ar   96  TYR96      -0.0198
    108  CD1        5.7840   75.5960   16.4490 C.ar   96  TYR96      -0.0009
    109  CD2        4.1110   77.2180   16.8360 C.ar   96  TYR96      -0.0009
    110  CE1        5.5410   75.6710   15.0990 C.ar   96  TYR96       0.0417
    111  CE2        3.8760   77.3170   15.4640 C.ar   96  TYR96       0.0417
    112  CZ         4.5890   76.5340   14.5820 C.ar   96  TYR96       0.1957
    113  OH         4.3660   76.5830   13.2180 O.3    96  TYR96      -0.2866
    114  N          7.0970   79.8990   23.0810 N.3    99  SER99      -0.1202
    115  CA         8.2510   79.7720   23.9910 C.3    99  SER99       0.2020
    116  C          9.4280   80.6310   23.4700 C.2    99  SER99       0.2619
    117  O         10.1710   81.2240   24.2490 O.2    99  SER99      -0.2717
    118  CB         8.7520   78.3390   24.0680 C.3    99  SER99       0.2103
    119  OG         8.0580   77.5330   25.0340 O.3    99  SER99      -0.2182
    120  N          9.5770   80.6860   22.1720 N.am  100  GLY100     -0.1956
    121  CA        10.5880   81.5190   21.4910 C.3   100  GLY100      0.1869
    122  C         10.4030   82.9800   21.9410 C.2   100  GLY100      0.2309
    123  O         11.3830   83.6580   22.2820 O.2   100  GLY100     -0.2863
    124  N         10.7830   83.4070   26.1540 N.3   103  PHE103     -0.1227
    125  CA        12.1050   83.2270   26.7420 C.3   103  PHE103      0.1736
    126  C         13.0430   84.3660   26.3470 C.2   103  PHE103      0.2596
    127  O         13.7120   84.8870   27.2690 O.2   103  PHE103     -0.2718
    128  CB        12.6710   81.8230   26.4240 C.3   103  PHE103      0.0547
    129  CG        12.0860   80.8390   27.4310 C.ar  103  PHE103     -0.0202
    130  CD1       10.7850   80.3720   27.2910 C.ar  103  PHE103     -0.0042
    131  CD2       12.8220   80.4640   28.5330 C.ar  103  PHE103     -0.0042
    132  CE1       10.2400   79.5040   28.2490 C.ar  103  PHE103     -0.0003
    133  CE2       12.2840   79.6050   29.4720 C.ar  103  PHE103     -0.0003
    134  CZ        11.0010   79.1340   29.3390 C.ar  103  PHE103     -0.0000
    135  N         13.0270   84.8120   25.0930 N.am  104  THR104     -0.1953
    136  CA        13.8630   85.9720   24.7570 C.3   104  THR104      0.1897
    137  C         13.2450   87.2170   25.3860 C.2   104  THR104      0.2313
    138  O         13.9340   88.1390   25.8490 O.2   104  THR104     -0.2863
    139  CB        14.0270   86.1530   23.2350 C.3   104  THR104      0.1794
    140  OG1       14.6940   84.9990   22.7390 O.3   104  THR104     -0.2208
    141  CG2       14.8570   87.3760   22.8330 C.3   104  THR104      0.0378
    142  N         20.5370   73.4620   32.8810 N.3   147  GLU147     -0.1231
    143  CA        20.5390   74.1000   31.5600 C.3   147  GLU147      0.1699
    144  C         20.2910   75.6000   31.7880 C.2   147  GLU147      0.2592
    145  O         19.8940   76.0760   32.8540 O.2   147  GLU147     -0.2718
    146  CB        19.5430   73.5440   30.5500 C.3   147  GLU147      0.0402
    147  CG        19.9000   72.3110   29.7400 C.3   147  GLU147      0.1161
    148  CD        19.2130   72.0810   28.4060 C.2   147  GLU147      0.3649
    149  OE1       18.0830   72.5550   28.1090 O.co2 147  GLU147     -0.2457
    150  OE2       19.8300   71.3660   27.5610 O.co2 147  GLU147     -0.2457
    151  N         20.5310   76.3780   30.7400 N.am  148  ARG148     -0.1966
    152  CA        20.2330   77.8000   30.7510 C.3   148  ARG148      0.1729
    153  C         18.7360   77.9870   31.0170 C.2   148  ARG148      0.2616
    154  O         17.9060   77.1420   30.6840 O.2   148  ARG148     -0.2715
    155  CB        20.5530   78.3570   29.3530 C.3   148  ARG148      0.0348
    156  CG        21.0370   79.8000   29.4400 C.3   148  ARG148      0.0492
    157  CD        21.6070   80.3050   28.1490 C.3   148  ARG148      0.2205
    158  NE        22.8990   79.8310   27.7220 N.pl3 148  ARG148     -0.0865
    159  CZ        24.0960   80.3040   28.0110 C.cat 148  ARG148      0.5346
    160  NH1       24.2310   81.3520   28.8180 N.pl3 148  ARG148      0.1354
    161  NH2       25.1730   79.7670   27.4740 N.pl3 148  ARG148      0.1354
    162  N         18.3650   79.0820   31.6290 N.am  149  TYR149     -0.1960
    163  CA        17.0210   79.5200   31.9020 C.3   149  TYR149      0.1771
    164  C         16.3350   78.7520   33.0360 C.2   149  TYR149      0.2619
    165  O         15.2020   79.0640   33.3600 O.2   149  TYR149     -0.2715
    166  CB        16.1460   79.4810   30.6580 C.3   149  TYR149      0.0574
    167  CG        16.6550   80.1870   29.4170 C.ar  149  TYR149     -0.0198
    168  CD1       16.3470   79.6900   28.1520 C.ar  149  TYR149     -0.0009
    169  CD2       17.4140   81.3430   29.5060 C.ar  149  TYR149     -0.0009
    170  CE1       16.7670   80.3390   27.0050 C.ar  149  TYR149      0.0417
    171  CE2       17.8540   81.9890   28.3680 C.ar  149  TYR149      0.0417
    172  CZ        17.5450   81.4900   27.1230 C.ar  149  TYR149      0.1957
    173  OH        17.9050   82.1190   25.9720 O.3   149  TYR149     -0.2866
    174  N         17.0610   77.8150   33.6230 N.am  150  GLU150     -0.1977
    175  CA        16.4690   77.0610   34.7340 C.3   150  GLU150      0.1602
    176  C         16.6850   77.7170   36.0880 C.2   150  GLU150      0.2287
    177  O         17.5270   77.3300   36.8960 O.2   150  GLU150     -0.2864
    178  CB        17.0510   75.6410   34.7210 C.3   150  GLU150      0.0415
    179  CG        16.9260   75.0530   33.3120 C.3   150  GLU150      0.1163
    180  CD        16.5400   73.5920   33.3990 C.2   150  GLU150      0.3649
    181  OE1       16.3410   73.1540   34.5570 O.co2 150  GLU150     -0.2457
    182  OE2       16.4170   72.9210   32.3640 O.co2 150  GLU150     -0.2457
    183  N         12.2280   82.2500   34.9700 N.3   155  GLN155     -0.1245
    184  CA        10.9820   81.5490   34.5760 C.3   155  GLN155      0.1566
    185  C          9.7860   82.4430   34.8370 C.2   155  GLN155      0.2260
    186  O          8.8340   82.5210   34.0500 O.2   155  GLN155     -0.2867
    187  CB        10.8400   80.2280   35.3210 C.3   155  GLN155      0.0367
    188  CG        11.7970   79.1160   34.9700 C.3   155  GLN155      0.0905
    189  CD        11.5040   78.4490   33.6460 C.2   155  GLN155      0.2608
    190  OE1       10.3550   78.1500   33.3470 O.2   155  GLN155     -0.2717
    191  NE2       12.5310   78.1800   32.8540 N.am  155  GLN155     -0.0878
@<TRIPOS>BOND
     1    75    74    2
     2    74    73    1
     3   113   112    1
     4    73    72    1
     5    73    76    1
     6    76    77    1
     7   112   110   ar
     8   112   111   ar
     9    34    33   ar
    10    34    32   ar
    11   110   108   ar
    12    33    31   ar
    13    77    78    1
    14   111   109   ar
    15    32    30   ar
    16    78    79    1
    17    64    63    2
    18    79    80    2
    19    31    29   ar
    20   108   107   ar
    21    63    62    1
    22   109   107   ar
    23    61    62    1
    24    30    29   ar
    25    44    45    2
    26    44    43    1
    27   107   106    1
    28    80    82    1
    29    80    81    1
    30    29    28    1
    31    62    65    1
    32    42    43    1
    33    43    46    1
    34    28    25    1
    35   106   103    1
    36    65    66    1
    37    37    36    1
    38    37    38    2
    39    25    24    1
    40    25    26    1
    41   103   104    1
    42   103   102    1
    43   104   105    2
    44    36    39    1
    45    36    35    1
    46    46    47    1
    47    94    93    2
    48    66    68   ar
    49    66    67   ar
    50    39    40    1
    51    68    70   ar
    52    26    35   am
    53    26    27    2
    54    35    41    1
    55    47    48    1
    56   102    93   am
    57    67    69   ar
    58    93    92    1
    59    83    84    1
    60   121   122    1
    61   121   120    1
    62    70    71   ar
    63    40    41    1
    64    86    85    2
    65   122   123    2
    66    69    71   ar
    67   120   116   am
    68    48    49    1
    69    85    84    1
    70    85    91   am
    71    84    87    1
    72    92    91    1
    73    92    95    1
    74   140   139    1
    75   141   139    1
    76    87    88    1
    77    95    96    1
    78   114   115    1
    79   139   136    1
    80    49    50    2
    81   116   115    1
    82   116   117    2
    83   115   118    1
    84   118   119    1
    85    88    90   ar
    86    88    89   ar
    87    50    51    1
    88    50    52    1
    89    59    58    1
    90    96    97    1
    91   136   135    1
    92   136   137    1
    93    97    98    1
    94   135   126   am
    95    58    57    1
    96    58    60    1
    97    53    54    1
    98   137   138    2
    99    57    54    1
   100   173   172    1
   101   124   125    1
   102    98    99    2
   103   126   125    1
   104   126   127    2
   105    54    55    1
   106   128   125    1
   107   128   129    1
   108    21    20    2
   109    12    11    2
   110   170   172   ar
   111   170   168   ar
   112   172   171   ar
   113    23    22    1
   114    19    22    1
   115    19    20    1
   116    19    18    1
   117   100    99    1
   118   130   129   ar
   119   130   132   ar
   120    99   101    1
   121   129   131   ar
   122   161   159    1
   123    55    56    2
   124    11    18   am
   125    11    10    1
   126   150   148   ar
   127    13    10    1
   128    13    14    1
   129   158   159    2
   130   158   157    1
   131    15    14    1
   132    15    16    1
   133   159   160    1
   134   149   148   ar
   135   157   156    1
   136   168   167   ar
   137    10     9    1
   138   132   134   ar
   139   171   169   ar
   140   148   147    1
   141    16    17    1
   142   131   133   ar
   143   134   133   ar
   144   155   156    1
   145   155   152    1
   146   167   169   ar
   147   167   166    1
   148   147   146    1
   149   146   143    1
   150   166   163    1
   151   154   153    2
   152   151   152    1
   153   151   144   am
   154   152   153    1
   155   153   162   am
   156   143   144    1
   157   143   142    1
   158   162   163    1
   159   144   145    2
   160   163   164    1
   161   182   180   ar
   162   191   189   am
   163   164   165    2
   164   164   174   am
   165   179   180    1
   166   179   178    1
   167   190   189    2
   168   180   181   ar
   169     7     6   ar
   170   174   175    1
   171   189   188    1
   172     1     2    1
   173     2     5    1
   174     2     3    1
   175   186   185    2
   176     5     6    1
   177     6     8   ar
   178   184   185    1
   179   184   183    1
   180   184   187    1
   181     3     4    2
   182   178   175    1
   183   175   176    1
   184   188   187    1
   185   176   177    2
