@<TRIPOS>MOLECULE
tmp/1nn1A01.pdb
 142 135 0 0 0
SMALL
GASTEIGER

@<TRIPOS>ATOM
      1  N          7.8160   75.5320   33.1520 N.3    12  ASP12      -0.1225
      2  CA         8.8530   74.5050   33.2110 C.3    12  ASP12       0.1805
      3  C          8.3570   73.3280   34.0390 C.2    12  ASP12       0.2598
      4  O          7.6430   73.4890   35.0220 O.2    12  ASP12      -0.2718
      5  CB        10.1810   75.1140   33.6270 C.3    12  ASP12       0.1424
      6  CG        11.2710   74.0720   33.6510 C.2    12  ASP12       0.3668
      7  OD1       11.8270   73.7230   32.5900 O.co2  12  ASP12      -0.2456
      8  OD2       11.5600   73.6030   34.7680 O.co2  12  ASP12      -0.2456
      9  N          8.6570   72.1280   33.5270 N.am   13  ARG13      -0.1966
     10  CA         8.2620   70.9060   34.2140 C.3    13  ARG13       0.1729
     11  C          6.7480   70.8170   34.2810 C.2    13  ARG13       0.2616
     12  O          6.1980   70.0430   35.0520 O.2    13  ARG13      -0.2715
     13  CB         8.8920   70.8600   35.6130 C.3    13  ARG13       0.0348
     14  CG        10.4100   70.7000   35.5530 C.3    13  ARG13       0.0492
     15  CD        11.0610   70.6970   36.9300 C.3    13  ARG13       0.2205
     16  NE        11.2730   72.0400   37.4500 N.pl3  13  ARG13      -0.0865
     17  CZ        11.7520   72.3550   38.6460 C.cat  13  ARG13       0.5346
     18  NH1       12.0940   71.4060   39.5110 N.pl3  13  ARG13       0.1354
     19  NH2       11.8980   73.6280   39.0010 N.pl3  13  ARG13       0.1354
     20  N          6.0840   71.6310   33.4430 N.am   14  ALA14      -0.1963
     21  CA         4.6280   71.5780   33.4510 C.3    14  ALA14       0.1728
     22  C          4.1390   70.2490   32.8860 C.2    14  ALA14       0.2617
     23  O          3.0040   69.8880   33.1770 O.2    14  ALA14      -0.2715
     24  CB         4.1490   72.7620   32.6180 C.3    14  ALA14       0.0334
     25  N          4.9650   69.5010   32.1520 N.am   15  GLY15      -0.1940
     26  CA         4.5270   68.1920   31.6340 C.3    15  GLY15       0.2014
     27  C          4.3910   68.1900   30.0910 C.2    15  GLY15       0.2639
     28  O          3.8520   67.2490   29.4760 O.2    15  GLY15      -0.2714
     29  N          4.9190   69.1840   29.4190 N.am   16  LYS16      -0.1963
     30  CA         4.7820   69.2940   27.9680 C.3    16  LYS16       0.1728
     31  C          5.2900   68.0290   27.2540 C.2    16  LYS16       0.2617
     32  O          4.5950   67.5340   26.3630 O.2    16  LYS16      -0.2715
     33  CB         5.6300   70.4740   27.4220 C.3    16  LYS16       0.0311
     34  CG         5.1680   71.8230   28.0400 C.3    16  LYS16       0.0038
     35  CD         6.0350   72.9810   27.5580 C.3    16  LYS16       0.0206
     36  CE         7.5260   72.8540   27.9050 C.3    16  LYS16       0.1093
     37  NZ         7.7300   72.8990   29.3840 N.3    16  LYS16      -0.1314
     38  N          6.4610   67.5740   27.6670 N.am   17  SER17      -0.1936
     39  CA         7.0070   66.4110   26.8940 C.3    17  SER17       0.2055
     40  C          6.2490   65.1350   27.2160 C.2    17  SER17       0.2644
     41  O          5.9700   64.3420   26.3270 O.2    17  SER17      -0.2714
     42  CB         8.4850   66.2440   27.2060 C.3    17  SER17       0.2130
     43  OG         9.1800   67.3790   26.6620 O.3    17  SER17      -0.2179
     44  N          5.9570   64.9190   28.4920 N.am   18  THR18      -0.1936
     45  CA         5.2250   63.6920   28.8290 C.3    18  THR18       0.2028
     46  C          3.8770   63.6960   28.1110 C.2    18  THR18       0.2642
     47  O          3.4680   62.6850   27.5340 O.2    18  THR18      -0.2714
     48  CB         4.9820   63.6490   30.3460 C.3    18  THR18       0.1808
     49  OG1        6.2600   63.5120   30.9950 O.3    18  THR18      -0.2208
     50  CG2        4.1080   62.4590   30.7490 C.3    18  THR18       0.0379
     51  N          3.1600   64.8410   28.1870 N.am   19  GLN19      -0.1976
     52  CA         1.8350   64.8790   27.5700 C.3    19  GLN19       0.1601
     53  C          1.9150   64.8020   26.0530 C.2    19  GLN19       0.2287
     54  O          0.9720   64.2580   25.4310 O.2    19  GLN19      -0.2864
     55  CB         1.0260   66.1250   28.0190 C.3    19  GLN19       0.0394
     56  CG         0.7890   66.1510   29.5550 C.3    19  GLN19       0.0908
     57  CD        -0.0310   64.9410   30.0260 C.2    19  GLN19       0.2608
     58  OE1       -0.8030   64.3390   29.2760 O.2    19  GLN19      -0.2717
     59  NE2        0.1240   64.5600   31.3030 N.am   19  GLN19      -0.0878
     60  N          3.9500   63.1110   24.2920 N.3    21  ARG21      -0.1245
     61  CA         4.1940   61.7140   23.9550 C.3    21  ARG21       0.1563
     62  C          2.9360   60.8770   24.1500 C.2    21  ARG21       0.2260
     63  O          2.5330   60.0880   23.2750 O.2    21  ARG21      -0.2867
     64  CB         5.3150   61.0540   24.8460 C.3    21  ARG21       0.0307
     65  CG         6.7520   61.4930   24.5520 C.3    21  ARG21       0.0489
     66  CD         7.7800   60.6780   25.3990 C.3    21  ARG21       0.2205
     67  NE         7.5570   60.7650   26.8460 N.pl3  21  ARG21      -0.0865
     68  CZ         8.1460   61.6460   27.6550 C.cat  21  ARG21       0.5346
     69  NH1        9.0120   62.5740   27.2180 N.pl3  21  ARG21       0.1354
     70  NH2        7.8390   61.5820   28.9380 N.pl3  21  ARG21       0.1354
     71  N          6.5840   72.4510   22.2670 N.3    94  ARG94      -0.1245
     72  CA         7.0740   73.8080   22.1940 C.3    94  ARG94       0.1563
     73  C          7.0970   74.3340   20.7420 C.2    94  ARG94       0.2260
     74  O          7.3610   73.5260   19.8650 O.2    94  ARG94      -0.2867
     75  CB         8.4800   74.1040   22.7360 C.3    94  ARG94       0.0307
     76  CG         8.5790   73.8840   24.2780 C.3    94  ARG94       0.0489
     77  CD        10.0280   74.3440   24.6010 C.3    94  ARG94       0.2205
     78  NE        10.4280   74.1060   25.9790 N.pl3  94  ARG94      -0.0865
     79  CZ        10.1260   74.9060   27.0060 C.cat  94  ARG94       0.5346
     80  NH1        9.4170   76.0300   26.9190 N.pl3  94  ARG94       0.1354
     81  NH2       10.5860   74.5890   28.2360 N.pl3  94  ARG94       0.1354
     82  N          8.7030   69.2640   41.1760 N.3   140  ARG140     -0.1245
     83  CA         8.7950   68.2000   40.1820 C.3   140  ARG140      0.1563
     84  C         10.3020   67.9740   40.0280 C.2   140  ARG140      0.2260
     85  O         10.9960   68.2510   39.0640 O.2   140  ARG140     -0.2867
     86  CB         8.0670   68.4760   38.8730 C.3   140  ARG140      0.0307
     87  CG         6.6390   67.9420   38.9310 C.3   140  ARG140      0.0489
     88  CD         5.7330   68.5680   37.8780 C.3   140  ARG140      0.2205
     89  NE         4.3550   68.5110   38.3280 N.pl3 140  ARG140     -0.0865
     90  CZ         3.2990   68.5590   37.5220 C.cat 140  ARG140      0.5346
     91  NH1        3.5600   68.6370   36.2180 N.pl3 140  ARG140      0.1354
     92  NH2        2.0850   68.5010   38.0230 N.pl3 140  ARG140      0.1354
     93  N         17.1830   77.7260   33.4290 N.3   149  GLU149     -0.1245
     94  CA        16.5850   76.8860   34.4750 C.3   149  GLU149      0.1567
     95  C         16.7750   77.5190   35.8550 C.2   149  GLU149      0.2260
     96  O         17.5490   77.0120   36.6700 O.2   149  GLU149     -0.2867
     97  CB        17.1270   75.4590   34.5160 C.3   149  GLU149      0.0388
     98  CG        17.2150   74.7840   33.1650 C.3   149  GLU149      0.1160
     99  CD        17.0160   73.2800   33.2230 C.2   149  GLU149      0.3649
    100  OE1       16.1130   72.8260   33.9610 O.co2 149  GLU149     -0.2457
    101  OE2       17.7770   72.5830   32.5110 O.co2 149  GLU149     -0.2457
    102  N         -2.3560   71.5990   34.6780 N.3   177  ALA177     -0.1231
    103  CA        -1.2730   70.6170   34.6690 C.3   177  ALA177      0.1694
    104  C         -0.8590   70.1300   36.0440 C.2   177  ALA177      0.2593
    105  O          0.0580   69.3160   36.1590 O.2   177  ALA177     -0.2718
    106  CB        -0.0840   71.2710   33.9640 C.3   177  ALA177      0.0304
    107  N         -1.5960   70.5880   37.0710 N.am  178  SER178     -0.1938
    108  CA        -1.2880   70.1520   38.4420 C.3   178  SER178      0.2055
    109  C         -1.9260   68.8060   38.7600 C.2   178  SER178      0.2643
    110  O         -1.5910   68.2100   39.7860 O.2   178  SER178     -0.2714
    111  CB        -1.7740   71.1820   39.4740 C.3   178  SER178      0.2130
    112  OG        -3.2010   71.1780   39.5970 O.3   178  SER178     -0.2179
    113  N         -2.8300   68.3120   37.9240 N.am  179  LYS179     -0.1963
    114  CA        -3.4650   67.0130   38.2070 C.3   179  LYS179      0.1728
    115  C         -2.5050   65.8620   37.8800 C.2   179  LYS179      0.2617
    116  O         -1.3540   66.1120   37.5500 O.2   179  LYS179     -0.2715
    117  CB        -4.7670   66.9120   37.4340 C.3   179  LYS179      0.0311
    118  CG        -5.7500   68.0480   37.7880 C.3   179  LYS179      0.0038
    119  CD        -7.1180   67.7900   37.1790 C.3   179  LYS179      0.0206
    120  CE        -7.2850   68.1430   35.7170 C.3   179  LYS179      0.1093
    121  NZ        -8.7520   68.2250   35.3640 N.3   179  LYS179     -0.1314
    122  N         -2.9520   64.6290   37.9980 N.am  180  SER180     -0.1936
    123  CA        -2.1110   63.4930   37.7440 C.3   180  SER180      0.2055
    124  C         -1.7640   63.4820   36.2310 C.2   180  SER180      0.2642
    125  O         -2.4820   64.0730   35.4290 O.2   180  SER180     -0.2714
    126  CB        -2.8050   62.1800   38.1110 C.3   180  SER180      0.2130
    127  OG        -3.8620   61.8730   37.1900 O.3   180  SER180     -0.2179
    128  N         -0.7280   62.7280   35.9170 N.am  181  ILE181     -0.1977
    129  CA        -0.3430   62.5540   34.5100 C.3   181  ILE181      0.1596
    130  C         -1.5210   62.0360   33.6930 C.2   181  ILE181      0.2287
    131  O         -1.8070   62.5250   32.6200 O.2   181  ILE181     -0.2864
    132  CB         0.8710   61.5870   34.4170 C.3   181  ILE181      0.0276
    133  CG1        2.1100   62.3710   34.8260 C.3   181  ILE181      0.0022
    134  CG2        1.0110   60.9730   33.0240 C.3   181  ILE181      0.0022
    135  CD1        3.3940   61.5750   34.9570 C.3   181  ILE181      0.0001
    136  N         -4.4640   64.8230   33.4390 N.3   184  VAL184     -0.1245
    137  CA        -4.0510   65.8950   32.5250 C.3   184  VAL184      0.1561
    138  C         -4.1560   65.3840   31.0780 C.2   184  VAL184      0.2260
    139  O         -4.6840   66.0140   30.1750 O.2   184  VAL184     -0.2867
    140  CB        -2.6120   66.3320   32.8190 C.3   184  VAL184      0.0252
    141  CG1       -2.1460   67.3540   31.7460 C.3   184  VAL184      0.0019
    142  CG2       -2.5040   67.0240   34.1940 C.3   184  VAL184      0.0019
@<TRIPOS>BOND
     1    74    73    2
     2    73    72    1
     3    72    71    1
     4    72    75    1
     5    75    76    1
     6    63    62    2
     7    61    62    1
     8    61    60    1
     9    61    64    1
    10    76    77    1
    11    65    64    1
    12    65    66    1
    13    77    78    1
    14    66    67    1
    15    54    53    2
    16    78    79    2
    17    53    52    1
    18    41    40    2
    19    32    31    2
    20    43    42    1
    21    67    68    2
    22    39    42    1
    23    39    40    1
    24    39    38    1
    25    80    79    1
    26    79    81    1
    27    40    44   am
    28    69    68    1
    29    31    38   am
    30    31    30    1
    31    33    30    1
    32    33    34    1
    33    47    46    2
    34    35    36    1
    35    35    34    1
    36    52    55    1
    37    52    51    1
    38    68    70    1
    39    36    37    1
    40    30    29    1
    41    55    56    1
    42    46    51   am
    43    46    45    1
    44    44    45    1
    45    45    48    1
    46    58    57    2
    47    29    27   am
    48    28    27    2
    49    56    57    1
    50    57    59   am
    51    27    26    1
    52   139   138    2
    53    48    50    1
    54    48    49    1
    55   138   137    1
    56    26    25    1
    57   141   140    1
    58    25    22   am
    59   101    99   ar
    60   137   140    1
    61   137   136    1
    62     7     6   ar
    63    24    21    1
    64   131   130    2
    65   140   142    1
    66    22    23    2
    67    22    21    1
    68   134   132    1
    69     1     2    1
    70    98    99    1
    71    98    97    1
    72     2     5    1
    73     2     3    1
    74    99   100   ar
    75    93    94    1
    76    20    21    1
    77    20    11   am
    78     9     3   am
    79     9    10    1
    80     5     6    1
    81     6     8   ar
    82   130   129    1
    83   106   103    1
    84     3     4    2
    85    10    11    1
    86    10    13    1
    87    11    12    2
    88   132   129    1
    89   132   133    1
    90    94    97    1
    91    94    95    1
    92   129   128    1
    93   103   102    1
    94   103   104    1
    95   133   135    1
    96   121   120    1
    97   125   124    2
    98    14    13    1
    99    14    15    1
   100   120   119    1
   101    95    96    2
   102   128   124   am
   103   104   105    2
   104   104   107   am
   105    91    90    1
   106   124   123    1
   107    15    16    1
   108   107   108    1
   109   119   118    1
   110   127   126    1
   111   117   118    1
   112   117   114    1
   113    16    17    2
   114    90    92    1
   115    90    89    2
   116   116   115    2
   117   123   122    1
   118   123   126    1
   119    88    89    1
   120    88    87    1
   121   115   122   am
   122   115   114    1
   123   113   114    1
   124   113   109   am
   125   108   109    1
   126   108   111    1
   127    17    19    1
   128    17    18    1
   129   109   110    2
   130    86    87    1
   131    86    83    1
   132    85    84    2
   133   111   112    1
   134    84    83    1
   135    83    82    1
