@<TRIPOS>MOLECULE
tmp/1nneD00.pdb
 146 141 0 0 0
SMALL
GASTEIGER

@<TRIPOS>ATOM
      1  N         74.4890   79.7070   97.6890 N.3   555  VAL555     -0.1245
      2  CA        74.7900   79.9310   96.2720 C.3   555  VAL555      0.1561
      3  C         75.1170   81.3580   95.8890 C.2   555  VAL555      0.2260
      4  O         76.0610   81.5820   95.1470 O.2   555  VAL555     -0.2867
      5  CB        73.6320   79.5020   95.3510 C.3   555  VAL555      0.0252
      6  CG1       73.9550   79.8920   93.9210 C.3   555  VAL555      0.0019
      7  CG2       73.4070   78.0060   95.4370 C.3   555  VAL555      0.0019
      8  N         78.4080   83.3380   95.8580 N.3   558  ARG558     -0.1231
      9  CA        79.3420   83.0320   94.7640 C.3   558  ARG558      0.1694
     10  C         78.9660   83.5680   93.3780 C.2   558  ARG558      0.2593
     11  O         79.7580   83.4490   92.4400 O.2   558  ARG558     -0.2718
     12  CB        79.5430   81.5210   94.6400 C.3   558  ARG558      0.0321
     13  CG        79.6570   80.7850   95.9580 C.3   558  ARG558      0.0489
     14  CD        79.3350   79.2950   95.7790 C.3   558  ARG558      0.2205
     15  NE        78.5000   79.0460   94.5970 N.pl3 558  ARG558     -0.0865
     16  CZ        77.9080   77.8850   94.3280 C.cat 558  ARG558      0.5346
     17  NH1       78.0530   76.8590   95.1630 N.pl3 558  ARG558      0.1354
     18  NH2       77.1830   77.7520   93.2210 N.pl3 558  ARG558      0.1354
     19  N         77.7640   84.1220   93.2340 N.am  559  THR559     -0.1939
     20  CA        77.3410   84.6800   91.9530 C.3   559  THR559      0.2028
     21  C         76.1550   85.6210   92.0640 C.2   559  THR559      0.2642
     22  O         75.5310   85.7500   93.1170 O.2   559  THR559     -0.2714
     23  CB        76.9460   83.5930   90.9350 C.3   559  THR559      0.1808
     24  OG1       75.8980   82.7840   91.4830 O.3   559  THR559     -0.2208
     25  CG2       78.1450   82.7310   90.5580 C.3   559  THR559      0.0379
     26  N         75.8600   86.2820   90.9510 N.am  560  GLU560     -0.1963
     27  CA        74.7400   87.1980   90.8780 C.3   560  GLU560      0.1733
     28  C         73.5380   86.2750   90.8610 C.2   560  GLU560      0.2616
     29  O         73.3170   85.5660   89.8840 O.2   560  GLU560     -0.2715
     30  CB        74.8020   87.9940   89.5810 C.3   560  GLU560      0.0429
     31  CG        74.4220   89.4470   89.7250 C.3   560  GLU560      0.1163
     32  CD        74.0230   90.0560   88.3960 C.2   560  GLU560      0.3649
     33  OE1       73.0380   89.5680   87.7920 O.co2 560  GLU560     -0.2457
     34  OE2       74.6940   91.0160   87.9540 O.co2 560  GLU560     -0.2457
     35  N         72.7770   86.2740   91.9490 N.am  561  PHE561     -0.1960
     36  CA        71.6140   85.4100   92.0680 C.3   561  PHE561      0.1771
     37  C         70.3270   86.1340   91.7080 C.2   561  PHE561      0.2619
     38  O         70.1580   87.3140   91.9950 O.2   561  PHE561     -0.2715
     39  CB        71.5100   84.8940   93.4960 C.3   561  PHE561      0.0574
     40  CG        70.6790   83.6590   93.6380 C.ar  561  PHE561     -0.0200
     41  CD1       71.2780   82.4040   93.5920 C.ar  561  PHE561     -0.0042
     42  CD2       69.3050   83.7480   93.8520 C.ar  561  PHE561     -0.0042
     43  CE1       70.5270   81.2520   93.7680 C.ar  561  PHE561     -0.0003
     44  CE2       68.5430   82.6040   94.0280 C.ar  561  PHE561     -0.0003
     45  CZ        69.1530   81.3490   93.9870 C.ar  561  PHE561     -0.0000
     46  N         69.4140   85.4180   91.0740 N.am  562  VAL562     -0.1977
     47  CA        68.1480   86.0020   90.6970 C.3   562  VAL562      0.1596
     48  C         67.1620   85.5430   91.7470 C.2   562  VAL562      0.2287
     49  O         66.9160   84.3430   91.8850 O.2   562  VAL562     -0.2864
     50  CB        67.6910   85.4810   89.3360 C.3   562  VAL562      0.0276
     51  CG1       66.4170   86.1850   88.9150 C.3   562  VAL562      0.0022
     52  CG2       68.7950   85.6720   88.3150 C.3   562  VAL562      0.0022
     53  N         63.5420   84.9130   93.6220 N.3   564  ASN564     -0.1240
     54  CA        62.2760   84.4080   93.1210 C.3   564  ASN564      0.1653
     55  C         61.2100   84.3850   94.1960 C.2   564  ASN564      0.2266
     56  O         61.5160   84.3540   95.3860 O.2   564  ASN564     -0.2867
     57  CB        62.4570   82.9940   92.5870 C.3   564  ASN564      0.1155
     58  CG        62.8140   82.9720   91.1360 C.2   564  ASN564      0.2627
     59  OD1       62.0530   83.4620   90.2890 O.2   564  ASN564     -0.2716
     60  ND2       63.9770   82.4060   90.8240 N.am  564  ASN564     -0.0877
     61  N         66.6070   71.8590   82.1450 N.3   579  ASN579     -0.1225
     62  CA        67.6870   71.7230   83.1170 C.3   579  ASN579      0.1785
     63  C         68.6410   72.9050   82.9070 C.2   579  ASN579      0.2597
     64  O         68.6100   73.5460   81.8650 O.2   579  ASN579     -0.2718
     65  CB        68.4210   70.3950   82.9090 C.3   579  ASN579      0.1169
     66  CG        67.7010   69.2180   83.5530 C.2   579  ASN579      0.2627
     67  OD1       67.9980   68.0610   83.2630 O.2   579  ASN579     -0.2716
     68  ND2       66.7650   69.5100   84.4420 N.am  579  ASN579     -0.0877
     69  N         69.4750   73.2040   83.8950 N.am  580  MET580     -0.1965
     70  CA        70.4160   74.3200   83.8010 C.3   580  MET580      0.1736
     71  C         69.7070   75.6610   83.9590 C.2   580  MET580      0.2616
     72  O         70.3300   76.7180   83.8530 O.2   580  MET580     -0.2715
     73  CB        71.1780   74.2740   82.4680 C.3   580  MET580      0.0427
     74  CG        72.2250   73.1740   82.3930 C.3   580  MET580      0.0599
     75  SD        73.0090   72.9580   80.7670 S.3   580  MET580     -0.1393
     76  CE        74.1570   74.4300   80.7830 C.3   580  MET580      0.0692
     77  N         68.4070   75.6150   84.2260 N.am  581  ALA581     -0.1963
     78  CA        67.6270   76.8370   84.3980 C.3   581  ALA581      0.1728
     79  C         67.4200   77.2120   85.8740 C.2   581  ALA581      0.2617
     80  O         67.2740   78.3950   86.1920 O.2   581  ALA581     -0.2715
     81  CB        66.2810   76.7020   83.6950 C.3   581  ALA581      0.0334
     82  N         67.3910   76.2200   86.7670 N.am  582  GLY582     -0.1940
     83  CA        67.2270   76.5370   88.1730 C.3   582  GLY582      0.2014
     84  C         66.2220   75.8020   89.0490 C.2   582  GLY582      0.2639
     85  O         66.0480   76.2000   90.2100 O.2   582  GLY582     -0.2714
     86  N         65.5750   74.7530   88.5400 N.am  583  LYS583     -0.1963
     87  CA        64.6010   73.9940   89.3350 C.3   583  LYS583      0.1728
     88  C         65.1060   73.5170   90.6920 C.2   583  LYS583      0.2617
     89  O         64.5140   73.8150   91.7370 O.2   583  LYS583     -0.2715
     90  CB        64.1230   72.7730   88.5610 C.3   583  LYS583      0.0311
     91  CG        63.1640   73.0970   87.4550 C.3   583  LYS583      0.0038
     92  CD        63.0820   71.9520   86.4910 C.3   583  LYS583      0.0206
     93  CE        64.3640   71.8350   85.7260 C.3   583  LYS583      0.1093
     94  NZ        64.5450   70.4230   85.3920 N.3   583  LYS583     -0.1314
     95  N         66.1950   72.7610   90.6730 N.am  584  SER584     -0.1936
     96  CA        66.7470   72.2330   91.9010 C.3   584  SER584      0.2055
     97  C         67.2410   73.2680   92.9140 C.2   584  SER584      0.2643
     98  O         67.0810   73.0800   94.1240 O.2   584  SER584     -0.2714
     99  CB        67.8460   71.2580   91.5510 C.3   584  SER584      0.2130
    100  OG        67.2790   70.1590   90.8690 O.3   584  SER584     -0.2179
    101  N         67.8420   74.3520   92.4360 N.am  585  THR585     -0.1950
    102  CA        68.3280   75.3910   93.3280 C.3   585  THR585      0.1897
    103  C         67.1420   76.0060   94.0550 C.2   585  THR585      0.2313
    104  O         67.1850   76.2700   95.2580 O.2   585  THR585     -0.2863
    105  CB        69.0520   76.4820   92.5390 C.3   585  THR585      0.1794
    106  OG1       70.3280   75.9850   92.1350 O.3   585  THR585     -0.2208
    107  CG2       69.2370   77.7410   93.3780 C.3   585  THR585      0.0378
    108  N         65.8990   74.0300   96.8570 N.3   588  ARG588     -0.1231
    109  CA        66.8480   74.1730   97.9460 C.3   588  ARG588      0.1694
    110  C         66.8020   75.5050   98.6770 C.2   588  ARG588      0.2591
    111  O         66.9250   75.5450   99.9080 O.2   588  ARG588     -0.2718
    112  CB        68.2560   73.8790   97.4460 C.3   588  ARG588      0.0321
    113  CG        68.5080   72.3960   97.3010 C.3   588  ARG588      0.0489
    114  CD        69.9840   72.1230   97.2160 C.3   588  ARG588      0.2205
    115  NE        70.4950   72.5450   95.9250 N.pl3 588  ARG588     -0.0865
    116  CZ        70.7150   71.7120   94.9210 C.cat 588  ARG588      0.5346
    117  NH1       70.4780   70.4170   95.0830 N.pl3 588  ARG588      0.1354
    118  NH2       71.1370   72.1820   93.7500 N.pl3 588  ARG588      0.1354
    119  N         66.6220   76.6030   97.9530 N.am  589  GLN589     -0.1979
    120  CA        66.5580   77.8770   98.6490 C.3   589  GLN589      0.1601
    121  C         65.2970   77.8390   99.5360 C.2   589  GLN589      0.2287
    122  O         65.3290   78.2210  100.7120 O.2   589  GLN589     -0.2864
    123  CB        66.5230   79.0480   97.6500 C.3   589  GLN589      0.0394
    124  CG        65.2130   79.2300   96.9040 C.3   589  GLN589      0.0908
    125  CD        65.1510   80.5580   96.1830 C.2   589  GLN589      0.2608
    126  OE1       64.1120   81.2270   96.1660 O.2   589  GLN589     -0.2717
    127  NE2       66.2670   80.9500   95.5800 N.am  589  GLN589     -0.0878
    128  N         62.8640   65.4800   90.7110 N.3   657  GLU657     -0.1245
    129  CA        62.8720   64.5140   89.6230 C.3   657  GLU657      0.1567
    130  C         62.5760   63.0810   90.0310 C.2   657  GLU657      0.2260
    131  O         63.0020   62.1390   89.3580 O.2   657  GLU657     -0.2867
    132  CB        64.2220   64.5480   88.8950 C.3   657  GLU657      0.0388
    133  CG        64.1300   64.9820   87.4530 C.3   657  GLU657      0.1160
    134  CD        64.4980   66.4220   87.2920 C.2   657  GLU657      0.3649
    135  OE1       64.5780   66.8900   86.1420 O.co2 657  GLU657     -0.2457
    136  OE2       64.7180   67.0880   88.3240 O.co2 657  GLU657     -0.2457
    137  N         67.3030   82.7180   84.9700 N.3   720  HIS720     -0.1241
    138  CA        66.9510   82.0380   86.1950 C.3   720  HIS720      0.1621
    139  C         65.7290   82.5990   86.8900 C.2   720  HIS720      0.2264
    140  O         65.7700   82.8770   88.0800 O.2   720  HIS720     -0.2867
    141  CB        68.1590   82.0290   87.1290 C.3   720  HIS720      0.0745
    142  CG        69.4000   81.4790   86.4960 C.ar  720  HIS720      0.0817
    143  ND1       69.5120   80.1660   86.0850 N.ar  720  HIS720     -0.2268
    144  CD2       70.5700   82.0720   86.1630 C.ar  720  HIS720      0.1154
    145  CE1       70.6890   79.9800   85.5280 C.ar  720  HIS720      0.1986
    146  NE2       71.3590   81.1220   85.5590 N.ar  720  HIS720     -0.2212
@<TRIPOS>BOND
     1    75    76    1
     2    75    74    1
     3    64    63    2
     4    61    62    1
     5    74    73    1
     6    73    70    1
     7    63    62    1
     8    63    69   am
     9    65    62    1
    10    65    66    1
    11    67    66    2
    12    66    68   am
    13    81    78    1
    14    70    69    1
    15    70    71    1
    16    72    71    2
    17    71    77   am
    18    77    78    1
    19    78    79    1
    20   137   138    1
    21    94    93    1
    22   145   146   ar
    23   145   143   ar
    24   146   144   ar
    25    93    92    1
    26    79    80    2
    27    79    82   am
    28   143   142   ar
    29   135   134   ar
    30   144   142   ar
    31   138   139    1
    32   138   141    1
    33    92    91    1
    34   142   141    1
    35    82    83    1
    36   139   140    2
    37   134   133    1
    38   134   136   ar
    39   133   132    1
    40    91    90    1
    41    33    32   ar
    42    34    32   ar
    43    83    84    1
    44    52    50    1
    45    32    31    1
    46    86    84   am
    47    86    87    1
    48    90    87    1
    49   132   129    1
    50    51    50    1
    51    84    85    2
    52    87    88    1
    53    50    47    1
    54   131   130    2
    55    30    31    1
    56    30    27    1
    57   129   130    1
    58   129   128    1
    59    29    28    2
    60    59    58    2
    61    25    23    1
    62    95    88   am
    63    95    96    1
    64    88    89    2
    65    47    46    1
    66    47    48    1
    67    60    58   am
    68    28    27    1
    69    28    35   am
    70   100    99    1
    71    27    26    1
    72    23    24    1
    73    23    20    1
    74    26    21   am
    75    46    37   am
    76    58    57    1
    77    99    96    1
    78    37    38    2
    79    37    36    1
    80    48    49    2
    81    96    97    1
    82    35    36    1
    83    20    21    1
    84    20    19    1
    85    21    22    2
    86    36    39    1
    87   106   105    1
    88   101    97   am
    89   101   102    1
    90    11    10    2
    91   105   102    1
    92   105   107    1
    93    57    54    1
    94    97    98    2
    95    54    53    1
    96    54    55    1
    97    18    16    1
    98    19    10   am
    99   102   103    1
   100    10     9    1
   101    39    40    1
   102    41    40   ar
   103    41    43   ar
   104    40    42   ar
   105   118   116    1
   106    43    45   ar
   107    42    44   ar
   108     6     5    1
   109    45    44   ar
   110   103   104    2
   111    55    56    2
   112    16    15    2
   113    16    17    1
   114    15    14    1
   115    12     9    1
   116    12    13    1
   117     9     8    1
   118   116   117    1
   119   116   115    2
   120     4     3    2
   121     5     7    1
   122     5     2    1
   123   127   125   am
   124    14    13    1
   125     3     2    1
   126   115   114    1
   127   126   125    2
   128   125   124    1
   129     2     1    1
   130   108   109    1
   131   124   123    1
   132   114   113    1
   133   113   112    1
   134   112   109    1
   135   123   120    1
   136   109   110    1
   137   119   120    1
   138   119   110   am
   139   120   121    1
   140   110   111    2
   141   121   122    2
