@<TRIPOS>MOLECULE
tmp/1nnfA00.pdb
 113 107 0 0 0
SMALL
GASTEIGER

@<TRIPOS>ATOM
      1  N         14.5190   20.9710   11.7330 N.3     8  GLN8       -0.1231
      2  CA        15.2300   22.2230   11.5090 C.3     8  GLN8        0.1698
      3  C         15.3200   23.0200   12.8170 C.2     8  GLN8        0.2592
      4  O         14.5610   22.7920   13.7700 O.2     8  GLN8       -0.2718
      5  CB        14.5130   23.0020   10.3990 C.3     8  GLN8        0.0381
      6  CG        15.0410   24.3920   10.0680 C.3     8  GLN8        0.0905
      7  CD        16.4770   24.4040    9.5890 C.2     8  GLN8        0.2608
      8  OE1       17.3990   24.1910   10.3710 O.2     8  GLN8       -0.2717
      9  NE2       16.6710   24.6590    8.3020 N.am    8  GLN8       -0.0878
     10  N         16.2900   23.9260   12.8820 N.am    9  GLN9       -0.1979
     11  CA        16.4360   24.8270   14.0200 C.3     9  GLN9        0.1601
     12  C         15.0890   25.4650   14.3240 C.2     9  GLN9        0.2287
     13  O         14.3700   25.8930   13.4260 O.2     9  GLN9       -0.2864
     14  CB        17.5050   25.8930   13.7520 C.3     9  GLN9        0.0394
     15  CG        18.9350   25.3410   13.6380 C.3     9  GLN9        0.0908
     16  CD        19.4490   24.7330   14.9280 C.2     9  GLN9        0.2608
     17  OE1       20.0410   23.6540   14.9200 O.2     9  GLN9       -0.2717
     18  NE2       19.2320   25.4270   16.0360 N.am    9  GLN9       -0.0878
     19  N         16.4150   20.0170    8.2100 N.3    57  GLU57      -0.1245
     20  CA        17.6320   20.6980    7.8130 C.3    57  GLU57       0.1567
     21  C         18.4680   19.8790    6.8450 C.2    57  GLU57       0.2260
     22  O         19.4610   20.3890    6.3330 O.2    57  GLU57      -0.2867
     23  CB        18.4770   21.0400    9.0540 C.3    57  GLU57       0.0388
     24  CG        19.4510   19.9670    9.5400 C.3    57  GLU57       0.1160
     25  CD        18.8180   18.8010   10.2600 C.2    57  GLU57       0.3649
     26  OE1       19.5700   18.0660   10.9410 O.co2  57  GLU57      -0.2457
     27  OE2       17.5980   18.5990   10.1640 O.co2  57  GLU57      -0.2457
     28  N         22.9220   25.4160    3.5360 N.3   101  ARG101     -0.1245
     29  CA        23.9970   25.9290    4.3640 C.3   101  ARG101      0.1563
     30  C         25.3030   25.5180    3.7190 C.2   101  ARG101      0.2260
     31  O         25.4140   24.4120    3.2120 O.2   101  ARG101     -0.2867
     32  CB        23.9290   25.3480    5.7730 C.3   101  ARG101      0.0307
     33  CG        22.6570   25.6830    6.4970 C.3   101  ARG101      0.0489
     34  CD        22.4720   24.9700    7.8300 C.3   101  ARG101      0.2205
     35  NE        22.6120   23.5330    7.6810 N.pl3 101  ARG101     -0.0865
     36  CZ        21.6870   22.7380    7.1720 C.cat 101  ARG101      0.5346
     37  NH1       20.5000   23.2020    6.8240 N.pl3 101  ARG101      0.1354
     38  NH2       21.9560   21.4530    7.0360 N.pl3 101  ARG101      0.1354
     39  N         31.7420   18.5620   14.6840 N.3   139  SER139     -0.1202
     40  CA        30.5890   19.2150   14.0930 C.3   139  SER139      0.2020
     41  C         29.9320   18.3520   13.0180 C.2   139  SER139      0.2619
     42  O         30.5940   17.6100   12.2880 O.2   139  SER139     -0.2717
     43  CB        30.9900   20.5920   13.5440 C.3   139  SER139      0.2103
     44  OG        30.6400   20.8020   12.1890 O.3   139  SER139     -0.2182
     45  N         28.6200   18.4870   12.9000 N.am  140  GLY140     -0.1942
     46  CA        27.8780   17.7190   11.9310 C.3   140  GLY140      0.2014
     47  C         28.3090   18.0310   10.5130 C.2   140  GLY140      0.2638
     48  O         28.4610   17.1230    9.7120 O.2   140  GLY140     -0.2714
     49  N         28.5210   19.3040   10.1980 N.am  141  ALA141     -0.1977
     50  CA        28.9140   19.6810    8.8480 C.3   141  ALA141      0.1597
     51  C         30.3410   19.2570    8.5520 C.2   141  ALA141      0.2287
     52  O         30.6680   18.9890    7.4080 O.2   141  ALA141     -0.2864
     53  CB        28.7480   21.1700    8.6470 C.3   141  ALA141      0.0319
     54  N         33.4970   23.9020   18.8440 N.3   174  LYS174     -0.1231
     55  CA        32.2870   24.2780   18.1220 C.3   174  LYS174      0.1693
     56  C         32.6510   25.2830   17.0580 C.2   174  LYS174      0.2592
     57  O         33.6490   25.9920   17.1720 O.2   174  LYS174     -0.2718
     58  CB        31.2710   24.9780   19.0330 C.3   174  LYS174      0.0285
     59  CG        30.8040   24.2040   20.2470 C.3   174  LYS174      0.0035
     60  CD        30.0450   25.1040   21.2230 C.3   174  LYS174      0.0206
     61  CE        28.6850   25.5360   20.6780 C.3   174  LYS174      0.1093
     62  NZ        27.7050   24.4160   20.6240 N.3   174  LYS174     -0.1314
     63  N         31.8000   25.3850   16.0490 N.am  175  ASN175     -0.1974
     64  CA        31.9660   26.4040   15.0240 C.3   175  ASN175      0.1688
     65  C         31.9790   27.8050   15.5980 C.2   175  ASN175      0.2292
     66  O         32.7570   28.6260   15.1690 O.2   175  ASN175     -0.2864
     67  CB        30.8630   26.2950   13.9810 C.3   175  ASN175      0.1181
     68  CG        31.0270   25.0920   13.0970 C.2   175  ASN175      0.2629
     69  OD1       32.1260   24.8230   12.6070 O.2   175  ASN175     -0.2716
     70  ND2       29.9440   24.3490   12.8890 N.am  175  ASN175     -0.0877
     71  N         30.8100   26.8880    8.9310 N.3   193  ASN193     -0.1240
     72  CA        29.6950   27.0590    8.0240 C.3   193  ASN193      0.1653
     73  C         29.3640   28.5280    7.8830 C.2   193  ASN193      0.2266
     74  O         29.6460   29.3330    8.7660 O.2   193  ASN193     -0.2867
     75  CB        28.4570   26.3320    8.5290 C.3   193  ASN193      0.1155
     76  CG        28.7010   24.8620    8.7560 C.2   193  ASN193      0.2627
     77  OD1       29.4460   24.2310    8.0110 O.2   193  ASN193     -0.2716
     78  ND2       28.0930   24.3100    9.7960 N.am  193  ASN193     -0.0877
     79  N         26.6480   30.3600    8.0710 N.3   195  TYR195     -0.1227
     80  CA        25.6150   31.0820    8.8030 C.3   195  TYR195      0.1736
     81  C         26.1510   31.6740   10.1050 C.2   195  TYR195      0.2595
     82  O         25.6620   32.7110   10.5270 O.2   195  TYR195     -0.2718
     83  CB        24.3550   30.2190    9.0270 C.3   195  TYR195      0.0548
     84  CG        24.6680   28.8760    9.6140 C.ar  195  TYR195     -0.0200
     85  CD1       24.9400   27.7790    8.7990 C.ar  195  TYR195     -0.0009
     86  CD2       24.7510   28.7080   10.9750 C.ar  195  TYR195     -0.0009
     87  CE1       25.2830   26.5610    9.3370 C.ar  195  TYR195      0.0417
     88  CE2       25.0880   27.5000   11.5210 C.ar  195  TYR195      0.0417
     89  CZ        25.3630   26.4210   10.6980 C.ar  195  TYR195      0.1957
     90  OH        25.7360   25.2110   11.2170 O.3   195  TYR195     -0.2866
     91  N         27.1660   31.0680   10.7150 N.am  196  TYR196     -0.1976
     92  CA        27.7580   31.6590   11.9230 C.3   196  TYR196      0.1639
     93  C         28.2790   33.0470   11.6360 C.2   196  TYR196      0.2290
     94  O         28.0880   33.9700   12.4120 O.2   196  TYR196     -0.2864
     95  CB        28.9020   30.8100   12.4690 C.3   196  TYR196      0.0560
     96  CG        28.4460   29.4540   12.8800 C.ar  196  TYR196     -0.0198
     97  CD1       27.8110   29.2540   14.0930 C.ar  196  TYR196     -0.0009
     98  CD2       28.5930   28.3740   12.0290 C.ar  196  TYR196     -0.0009
     99  CE1       27.3550   28.0130   14.4590 C.ar  196  TYR196      0.0417
    100  CE2       28.1420   27.1270   12.3890 C.ar  196  TYR196      0.0417
    101  CZ        27.5190   26.9530   13.6010 C.ar  196  TYR196      0.1957
    102  OH        27.0680   25.7200   13.9640 O.3   196  TYR196     -0.2866
    103  N         16.9210   32.8120    9.3290 N.3   262  ARG262     -0.1245
    104  CA        18.1540   32.0350    9.3990 C.3   262  ARG262      0.1563
    105  C         18.9490   32.2900    8.1480 C.2   262  ARG262      0.2260
    106  O         18.3860   32.3980    7.0660 O.2   262  ARG262     -0.2867
    107  CB        17.8650   30.5410    9.5360 C.3   262  ARG262      0.0307
    108  CG        19.1130   29.6760    9.8040 C.3   262  ARG262      0.0489
    109  CD        18.7840   28.2770   10.2900 C.3   262  ARG262      0.2205
    110  NE        19.8840   27.3090   10.2380 N.pl3 262  ARG262     -0.0865
    111  CZ        20.8500   27.1800   11.1390 C.cat 262  ARG262      0.5346
    112  NH1       21.7460   26.2200   11.0000 N.pl3 262  ARG262      0.1354
    113  NH2       20.9420   27.9990   12.1780 N.pl3 262  ARG262      0.1354
@<TRIPOS>BOND
     1    31    30    2
     2    28    29    1
     3    30    29    1
     4    29    32    1
     5    32    33    1
     6    22    21    2
     7    33    34    1
     8    37    36    1
     9    21    20    1
    10    38    36    1
    11   106   105    2
    12    36    35    2
    13    52    51    2
    14    35    34    1
    15    20    19    1
    16    20    23    1
    17    73    72    1
    18    73    74    2
    19    77    76    2
    20    72    75    1
    21    72    71    1
    22    79    80    1
    23   105   104    1
    24     9     7   am
    25    75    76    1
    26    51    50    1
    27    53    50    1
    28    76    78   am
    29    85    87   ar
    30    85    84   ar
    31    80    83    1
    32    80    81    1
    33    50    49    1
    34    83    84    1
    35    23    24    1
    36   103   104    1
    37    87    89   ar
    38   104   107    1
    39   107   108    1
    40    24    25    1
    41     7     6    1
    42     7     8    2
    43    84    86   ar
    44    48    47    2
    45   108   109    1
    46     6     5    1
    47    81    82    2
    48    81    91   am
    49    27    25   ar
    50    49    47   am
    51   110   109    1
    52   110   111    2
    53    25    26   ar
    54     5     2    1
    55    47    46    1
    56    89    90    1
    57    89    88   ar
    58    91    92    1
    59    86    88   ar
    60   112   111    1
    61   111   113    1
    62     2     1    1
    63     2     3    1
    64    93    92    1
    65    93    94    2
    66    92    95    1
    67    46    45    1
    68    98   100   ar
    69    98    96   ar
    70    44    43    1
    71    42    41    2
    72   100   101   ar
    73    95    96    1
    74    69    68    2
    75     3    10   am
    76     3     4    2
    77    96    97   ar
    78    10    11    1
    79    70    68   am
    80    45    41   am
    81    41    40    1
    82    68    67    1
    83    13    12    2
    84    43    40    1
    85   101   102    1
    86   101    99   ar
    87    15    14    1
    88    15    16    1
    89    14    11    1
    90    67    64    1
    91    11    12    1
    92    97    99   ar
    93    40    39    1
    94    17    16    2
    95    16    18   am
    96    64    65    1
    97    64    63    1
    98    66    65    2
    99    63    56   am
   100    56    57    2
   101    56    55    1
   102    55    54    1
   103    55    58    1
   104    58    59    1
   105    59    60    1
   106    62    61    1
   107    61    60    1
