@<TRIPOS>MOLECULE
tmp/1nnpA00.pdb
 152 145 0 0 0
SMALL
GASTEIGER

@<TRIPOS>ATOM
      1  N         27.2860   -3.9350   20.3730 N.3    10  GLU10      -0.1245
      2  CA        27.4360   -3.0190   21.4860 C.3    10  GLU10       0.1567
      3  C         26.1740   -3.1110   22.3290 C.2    10  GLU10       0.2260
      4  O         25.1030   -2.7240   21.8750 O.2    10  GLU10      -0.2867
      5  CB        27.5830   -1.5880   20.9570 C.3    10  GLU10       0.0388
      6  CG        27.9650   -0.5710   22.0220 C.3    10  GLU10       0.1160
      7  CD        29.4520   -0.5840   22.3090 C.2    10  GLU10       0.3649
      8  OE1       30.2140   -0.0010   21.5090 O.co2  10  GLU10      -0.2457
      9  OE2       29.8600   -1.1930   23.3210 O.co2  10  GLU10      -0.2457
     10  N         22.4650   -2.1480   22.4280 N.3    13  TYR13      -0.1241
     11  CA        21.9860   -1.8770   21.0810 C.3    13  TYR13       0.1605
     12  C         21.9000   -3.1650   20.2630 C.2    13  TYR13       0.2264
     13  O         20.8620   -3.4560   19.6680 O.2    13  TYR13      -0.2867
     14  CB        22.8940   -0.8440   20.4190 C.3    13  TYR13       0.0534
     15  CG        22.8680    0.4810   21.1560 C.ar   13  TYR13      -0.0201
     16  CD1       21.7920    1.3630   21.0120 C.ar   13  TYR13      -0.0009
     17  CD2       23.8960    0.8350   22.0290 C.ar   13  TYR13      -0.0009
     18  CE1       21.7440    2.5620   21.7190 C.ar   13  TYR13       0.0417
     19  CE2       23.8560    2.0280   22.7440 C.ar   13  TYR13       0.0417
     20  CZ        22.7810    2.8880   22.5830 C.ar   13  TYR13       0.1957
     21  OH        22.7490    4.0730   23.2780 O.3    13  TYR13      -0.2866
     22  N         33.2680    2.1760   14.9530 N.3    58  TYR58      -0.1241
     23  CA        32.2190    3.1050   14.5730 C.3    58  TYR58       0.1605
     24  C         32.5810    3.8050   13.2700 C.2    58  TYR58       0.2264
     25  O         31.8130    3.7690   12.3120 O.2    58  TYR58      -0.2867
     26  CB        31.9830    4.1010   15.7090 C.3    58  TYR58       0.0534
     27  CG        31.1990    3.4680   16.8320 C.ar   58  TYR58      -0.0201
     28  CD1       29.8060    3.4840   16.8210 C.ar   58  TYR58      -0.0009
     29  CD2       31.8440    2.7600   17.8480 C.ar   58  TYR58      -0.0009
     30  CE1       29.0680    2.8020   17.7870 C.ar   58  TYR58       0.0417
     31  CE2       31.1180    2.0740   18.8220 C.ar   58  TYR58       0.0417
     32  CZ        29.7280    2.0980   18.7820 C.ar   58  TYR58       0.1957
     33  OH        28.9910    1.4100   19.7190 O.3    58  TYR58      -0.2866
     34  N         24.3790    3.0960   17.4330 N.3    86  PRO86      -0.2102
     35  CA        24.5660    4.3450   18.1750 C.3    86  PRO86       0.1504
     36  C         25.7020    5.1330   17.5230 C.2    86  PRO86       0.2576
     37  O         26.7510    5.3530   18.1270 O.2    86  PRO86      -0.2718
     38  CB        24.9110    3.8550   19.5770 C.3    86  PRO86       0.0282
     39  CG        25.6510    2.5790   19.3140 C.3    86  PRO86       0.0208
     40  CD        24.8100    1.9360   18.2400 C.3    86  PRO86       0.0893
     41  N         25.4810    5.5280   16.2710 N.am   87  LEU87      -0.1966
     42  CA        26.4660    6.2700   15.4940 C.3    87  LEU87       0.1728
     43  C         26.2230    7.7700   15.6410 C.2    87  LEU87       0.2616
     44  O         25.1570    8.2810   15.2830 O.2    87  LEU87      -0.2715
     45  CB        26.3760    5.8570   14.0190 C.3    87  LEU87       0.0311
     46  CG        27.4640    6.3650   13.0680 C.3    87  LEU87       0.0022
     47  CD1       28.8080    5.7600   13.4560 C.3    87  LEU87       0.0001
     48  CD2       27.1050    5.9920   11.6300 C.3    87  LEU87       0.0001
     49  N         27.2230    8.4650   16.1720 N.am   88  THR88      -0.1951
     50  CA        27.1350    9.9000   16.4100 C.3    88  THR88       0.1897
     51  C         27.1870   10.7660   15.1520 C.2    88  THR88       0.2313
     52  O         28.0320   10.5780   14.2750 O.2    88  THR88      -0.2863
     53  CB        28.2580   10.3560   17.3680 C.3    88  THR88       0.1794
     54  OG1       28.1860    9.5920   18.5800 O.3    88  THR88      -0.2208
     55  CG2       28.1210   11.8450   17.7080 C.3    88  THR88       0.0378
     56  N         31.7360   13.3080    9.4660 N.3    93  ARG93      -0.1245
     57  CA        30.9560   12.1870    8.9540 C.3    93  ARG93       0.1563
     58  C         29.8590   12.6550    7.9980 C.2    93  ARG93       0.2260
     59  O         29.6420   12.0510    6.9440 O.2    93  ARG93      -0.2867
     60  CB        30.3390   11.3990   10.1120 C.3    93  ARG93       0.0307
     61  CG        31.3610   10.5810   10.9030 C.3    93  ARG93       0.0489
     62  CD        30.7270    9.9140   12.1130 C.3    93  ARG93       0.2205
     63  NE        31.6790    9.0580   12.8140 N.pl3  93  ARG93      -0.0865
     64  CZ        31.4300    8.4490   13.9680 C.cat  93  ARG93       0.5346
     65  NH1       30.2490    8.6010   14.5600 N.pl3  93  ARG93       0.1354
     66  NH2       32.3630    7.6880   14.5280 N.pl3  93  ARG93       0.1354
     67  N         37.3620    5.6730   23.7040 N.3   135  LEU135     -0.1245
     68  CA        37.3220    4.6380   22.6720 C.3   135  LEU135      0.1561
     69  C         38.0560    5.0500   21.3900 C.2   135  LEU135      0.2260
     70  O         37.9860    6.2060   20.9730 O.2   135  LEU135     -0.2867
     71  CB        35.8620    4.3080   22.3280 C.3   135  LEU135      0.0270
     72  CG        35.5760    3.2640   21.2380 C.3   135  LEU135      0.0019
     73  CD1       36.0280    1.8870   21.6990 C.3   135  LEU135      0.0001
     74  CD2       34.0730    3.2320   20.9350 C.3   135  LEU135      0.0001
     75  N         36.3560    6.6220   17.3240 N.3   138  GLY138     -0.1210
     76  CA        35.0190    7.1230   17.5900 C.3   138  GLY138      0.1956
     77  C         34.9390    8.6360   17.6560 C.2   138  GLY138      0.2613
     78  O         35.9430    9.3350   17.5230 O.2   138  GLY138     -0.2717
     79  N         33.7340    9.1450   17.8790 N.am  139  SER139     -0.1938
     80  CA        33.5040   10.5830   17.9470 C.3   139  SER139      0.2055
     81  C         34.0240   11.2220   19.2290 C.2   139  SER139      0.2644
     82  O         34.3590   12.4050   19.2470 O.2   139  SER139     -0.2714
     83  CB        32.0060   10.8760   17.7970 C.3   139  SER139      0.2130
     84  OG        31.2530   10.1840   18.7780 O.3   139  SER139     -0.2179
     85  N         34.0860   10.4500   20.3070 N.am  140  THR140     -0.1936
     86  CA        34.5670   10.9910   21.5710 C.3   140  THR140      0.2028
     87  C         36.0590   11.2890   21.4730 C.2   140  THR140      0.2642
     88  O         36.5240   12.3310   21.9250 O.2   140  THR140     -0.2714
     89  CB        34.3150   10.0140   22.7400 C.3   140  THR140      0.1808
     90  OG1       32.9040    9.8260   22.9070 O.3   140  THR140     -0.2208
     91  CG2       34.8810   10.5800   24.0350 C.3   140  THR140      0.0379
     92  N         36.8070   10.3770   20.8670 N.am  141  LYS141     -0.1977
     93  CA        38.2400   10.5860   20.7210 C.3   141  LYS141      0.1596
     94  C         38.4930   11.7870   19.8080 C.2   141  LYS141      0.2287
     95  O         39.3530   12.6250   20.0880 O.2   141  LYS141     -0.2864
     96  CB        38.9030    9.3300   20.1470 C.3   141  LYS141      0.0298
     97  CG        40.4220    9.4110   20.1180 C.3   141  LYS141      0.0038
     98  CD        41.0530    8.1290   19.5970 C.3   141  LYS141      0.0206
     99  CE        42.5730    8.2600   19.5660 C.3   141  LYS141      0.1093
    100  NZ        43.2390    7.0420   19.0280 N.3   141  LYS141     -0.1314
    101  N         34.0310   -0.6830   23.9660 N.3   171  THR171     -0.1218
    102  CA        33.4720   -0.1250   25.1890 C.3   171  THR171      0.1862
    103  C         33.6750   -1.0940   26.3510 C.2   171  THR171      0.2287
    104  O         33.9600   -0.6760   27.4720 O.2   171  THR171     -0.2866
    105  CB        31.9780    0.1560   25.0200 C.3   171  THR171      0.1770
    106  OG1       31.8010    1.0930   23.9530 O.3   171  THR171     -0.2211
    107  CG2       31.3890    0.7260   26.3030 C.3   171  THR171      0.0375
    108  N         35.9720    7.9760   29.4240 N.3   188  LEU188     -0.1231
    109  CA        35.1610    9.0000   28.7770 C.3   188  LEU188      0.1693
    110  C         34.3310    8.3510   27.6810 C.2   188  LEU188      0.2592
    111  O         34.8720    7.8200   26.7110 O.2   188  LEU188     -0.2718
    112  CB        36.0620   10.0830   28.1810 C.3   188  LEU188      0.0284
    113  CG        36.7620   10.9500   29.2320 C.3   188  LEU188      0.0019
    114  CD1       38.0500   11.5100   28.6730 C.3   188  LEU188      0.0001
    115  CD2       35.8190   12.0610   29.6740 C.3   188  LEU188      0.0001
    116  N         33.0160    8.3900   27.8440 N.am  189  LEU189     -0.1966
    117  CA        32.1180    7.7880   26.8720 C.3   189  LEU189      0.1728
    118  C         30.7870    8.5120   26.8940 C.2   189  LEU189      0.2616
    119  O         30.5030    9.2950   27.8060 O.2   189  LEU189     -0.2715
    120  CB        31.8980    6.3040   27.1890 C.3   189  LEU189      0.0311
    121  CG        30.9590    5.9440   28.3460 C.3   189  LEU189      0.0022
    122  CD1       30.9080    4.4310   28.4810 C.3   189  LEU189      0.0001
    123  CD2       31.4270    6.5860   29.6480 C.3   189  LEU189      0.0001
    124  N         29.9640    8.2410   25.8930 N.am  190  GLU190     -0.1977
    125  CA        28.6780    8.8910   25.8100 C.3   190  GLU190      0.1602
    126  C         27.7560    8.5350   26.9650 C.2   190  GLU190      0.2287
    127  O         27.7210    7.3960   27.4380 O.2   190  GLU190     -0.2864
    128  CB        28.0740    8.6080   24.4440 C.3   190  GLU190      0.0415
    129  CG        28.8210    9.4160   23.3860 C.3   190  GLU190      0.1163
    130  CD        28.6190    8.9220   21.9710 C.2   190  GLU190      0.3649
    131  OE1       28.9440    9.6880   21.0390 O.co2 190  GLU190     -0.2457
    132  OE2       28.1560    7.7770   21.7900 O.co2 190  GLU190     -0.2457
    133  N         25.4050    5.3880   27.4320 N.3   193  MET193     -0.1245
    134  CA        26.0980    4.1310   27.6830 C.3   193  MET193      0.1570
    135  C         26.5570    4.1460   29.1390 C.2   193  MET193      0.2261
    136  O         26.4950    3.1300   29.8340 O.2   193  MET193     -0.2867
    137  CB        27.3050    3.9780   26.7600 C.3   193  MET193      0.0387
    138  CG        28.0190    2.6370   26.8960 C.3   193  MET193      0.0595
    139  SD        26.9130    1.2050   26.6850 S.3   193  MET193     -0.1393
    140  CE        26.6300    1.2580   24.9150 C.3   193  MET193      0.0692
    141  N         22.4360   10.5980   17.9620 N.3   217  TYR217     -0.1241
    142  CA        22.7160    9.4450   17.1180 C.3   217  TYR217      0.1605
    143  C         21.7510    9.5050   15.9480 C.2   217  TYR217      0.2264
    144  O         20.5840    9.8590   16.1210 O.2   217  TYR217     -0.2867
    145  CB        22.4590    8.1220   17.8360 C.3   217  TYR217      0.0534
    146  CG        23.3560    7.8110   19.0030 C.ar  217  TYR217     -0.0201
    147  CD1       24.6880    8.2170   19.0240 C.ar  217  TYR217     -0.0009
    148  CD2       22.8770    7.0650   20.0750 C.ar  217  TYR217     -0.0009
    149  CE1       25.5190    7.8860   20.0910 C.ar  217  TYR217      0.0417
    150  CE2       23.6960    6.7290   21.1390 C.ar  217  TYR217      0.0417
    151  CZ        25.0130    7.1430   21.1430 C.ar  217  TYR217      0.1957
    152  OH        25.8070    6.8200   22.2140 O.3   217  TYR217     -0.2866
@<TRIPOS>BOND
     1    59    58    2
     2    58    57    1
     3    57    56    1
     4    57    60    1
     5    60    61    1
     6    61    62    1
     7    48    46    1
     8    62    63    1
     9    25    24    2
    10    63    64    2
    11    46    47    1
    12    46    45    1
    13    24    23    1
    14    64    66    1
    15    64    65    1
    16    45    42    1
    17    52    51    2
    18    23    22    1
    19    23    26    1
    20    51    50    1
    21    44    43    2
    22    42    43    1
    23    42    41    1
    24    43    49   am
    25    26    27    1
    26   143   144    2
    27   143   142    1
    28    49    50    1
    29    41    36   am
    30    50    53    1
    31    28    27   ar
    32    28    30   ar
    33    27    29   ar
    34   142   145    1
    35   142   141    1
    36    75    76    1
    37    53    55    1
    38    53    54    1
    39    34    35    1
    40    34    40    1
    41    78    77    2
    42    36    37    2
    43    36    35    1
    44    76    77    1
    45    77    79   am
    46    30    32   ar
    47    83    80    1
    48    83    84    1
    49   145   146    1
    50    29    31   ar
    51    79    80    1
    52    80    81    1
    53    35    38    1
    54    40    39    1
    55    32    31   ar
    56    32    33    1
    57   146   147   ar
    58   146   148   ar
    59   147   149   ar
    60   100    99    1
    61    81    82    2
    62    81    85   am
    63    39    38    1
    64    99    98    1
    65    98    97    1
    66    13    12    2
    67    94    95    2
    68    94    93    1
    69   148   150   ar
    70   149   151   ar
    71    97    96    1
    72    96    93    1
    73    12    11    1
    74    85    86    1
    75     1     2    1
    76    14    11    1
    77    14    15    1
    78    93    92    1
    79    92    87   am
    80    74    72    1
    81     5     2    1
    82     5     6    1
    83    70    69    2
    84    16    15   ar
    85    16    18   ar
    86   131   130   ar
    87    11    10    1
    88   150   151   ar
    89   151   152    1
    90    15    17   ar
    91    72    73    1
    92    72    71    1
    93    69    68    1
    94    87    86    1
    95    87    88    2
    96     2     3    1
    97     8     7   ar
    98    86    89    1
    99    18    20   ar
   100   132   130   ar
   101     4     3    2
   102   130   129    1
   103     6     7    1
   104    17    19   ar
   105     7     9   ar
   106    71    68    1
   107    20    19   ar
   108    20    21    1
   109    68    67    1
   110    89    90    1
   111    89    91    1
   112   129   128    1
   113   106   105    1
   114   101   102    1
   115   128   125    1
   116   140   139    1
   117   105   102    1
   118   105   107    1
   119   102   103    1
   120   125   124    1
   121   125   126    1
   122   124   118   am
   123   103   104    2
   124   139   138    1
   125   111   110    2
   126   137   138    1
   127   137   134    1
   128   117   118    1
   129   117   120    1
   130   117   116    1
   131   118   119    2
   132   126   127    2
   133   120   121    1
   134   133   134    1
   135   110   116   am
   136   110   109    1
   137   134   135    1
   138   112   109    1
   139   112   113    1
   140   121   122    1
   141   121   123    1
   142   114   113    1
   143   109   108    1
   144   135   136    2
   145   113   115    1
