@<TRIPOS>MOLECULE
tmp/1nnsB00.pdb
 90 84 0 0 0
SMALL
GASTEIGER

@<TRIPOS>ATOM
      1  N          4.4660   16.9780   31.8850 N.3    11  GLY11      -0.1210
      2  CA         5.3510   16.0020   31.2930 C.3    11  GLY11       0.1956
      3  C          4.8080   15.2370   30.1060 C.2    11  GLY11       0.2612
      4  O          3.5870   15.3340   29.7040 O.2    11  GLY11      -0.2717
      5  N          5.6990   14.4750   29.4750 N.am   12  THR12      -0.1952
      6  CA         5.2660   13.6490   28.3050 C.3    12  THR12       0.1897
      7  C          4.2640   12.5260   28.7200 C.2    12  THR12       0.2313
      8  O          3.4270   12.1060   27.9330 O.2    12  THR12      -0.2863
      9  CB         6.4940   13.0350   27.6400 C.3    12  THR12       0.1794
     10  OG1        7.2320   14.0780   26.9960 O.3    12  THR12      -0.2208
     11  CG2        6.1090   12.0390   26.5070 C.3    12  THR12       0.0378
     12  N          5.0770   15.8480   19.3590 N.3    25  TYR25      -0.1241
     13  CA         4.0400   15.9410   20.4110 C.3    25  TYR25       0.1605
     14  C          4.2280   17.2100   21.2610 C.2    25  TYR25       0.2264
     15  O          5.2660   17.8980   21.1440 O.2    25  TYR25      -0.2867
     16  CB         4.0600   14.6750   21.2950 C.3    25  TYR25       0.0534
     17  CG         5.2520   14.6060   22.1920 C.ar   25  TYR25      -0.0201
     18  CD1        5.2590   15.1350   23.4120 C.ar   25  TYR25      -0.0009
     19  CD2        6.3820   14.0240   21.8160 C.ar   25  TYR25      -0.0009
     20  CE1        6.3810   15.0960   24.2210 C.ar   25  TYR25       0.0417
     21  CE2        7.5210   13.9830   22.6450 C.ar   25  TYR25       0.0417
     22  CZ         7.5260   14.5270   23.8440 C.ar   25  TYR25       0.1957
     23  OH         8.6460   14.4710   24.6560 O.3    25  TYR25      -0.2866
     24  N          4.0110   18.3660   25.4720 N.3    27  VAL27      -0.1245
     25  CA         3.8650   17.8220   26.8340 C.3    27  VAL27       0.1561
     26  C          2.9180   18.6480   27.6920 C.2    27  VAL27       0.2260
     27  O          2.6690   19.8180   27.4050 O.2    27  VAL27      -0.2867
     28  CB         5.2320   17.7310   27.5750 C.3    27  VAL27       0.0252
     29  CG1        6.3690   17.5400   26.6260 C.3    27  VAL27       0.0019
     30  CG2        5.5030   18.9420   28.2670 C.3    27  VAL27       0.0019
     31  N          5.6640   21.2200   30.5860 N.3    57  GLY57      -0.1210
     32  CA         6.7890   20.3670   30.2050 C.3    57  GLY57       0.1956
     33  C          7.8520   20.6570   31.2640 C.2    57  GLY57       0.2613
     34  O          8.0520   21.8090   31.6590 O.2    57  GLY57      -0.2717
     35  N          8.5560   19.6220   31.7250 N.am   58  SER58      -0.1938
     36  CA         9.4880   19.9130   32.8180 C.3    58  SER58       0.2055
     37  C         10.7340   20.6570   32.3350 C.2    58  SER58       0.2642
     38  O         11.5340   21.0150   33.1850 O.2    58  SER58      -0.2714
     39  CB         9.8650   18.6580   33.6080 C.3    58  SER58       0.2130
     40  OG        10.8530   17.8980   32.8360 O.3    58  SER58      -0.2179
     41  N         10.9030   20.9150   31.0070 N.am   59  GLN59      -0.1976
     42  CA        12.0060   21.8160   30.6250 C.3    59  GLN59       0.1601
     43  C         11.7530   23.2600   31.2190 C.2    59  GLN59       0.2287
     44  O         12.6720   24.0510   31.3080 O.2    59  GLN59      -0.2864
     45  CB        12.1950   21.8390   29.0680 C.3    59  GLN59       0.0394
     46  CG        10.9120   22.4000   28.2860 C.3    59  GLN59       0.0908
     47  CD         9.9860   21.2530   27.8520 C.2    59  GLN59       0.2608
     48  OE1        9.6660   20.3700   28.6620 O.2    59  GLN59      -0.2717
     49  NE2        9.6380   21.2080   26.5650 N.am   59  GLN59      -0.0878
     50  N          7.5420   15.5910   34.0170 N.3    88  GLY88      -0.1210
     51  CA         8.3330   15.3380   32.7920 C.3    88  GLY88       0.1956
     52  C          9.6660   14.6980   33.1140 C.2    88  GLY88       0.2613
     53  O         10.1740   14.8570   34.2600 O.2    88  GLY88      -0.2717
     54  N         10.2970   14.0440   32.1310 N.am   89  THR89      -0.1938
     55  CA        11.5240   13.3340   32.3930 C.3    89  THR89       0.2028
     56  C         12.7380   14.2440   32.2560 C.2    89  THR89       0.2642
     57  O         13.7400   13.9450   32.8770 O.2    89  THR89      -0.2714
     58  CB        11.7540   12.1590   31.4130 C.3    89  THR89       0.1808
     59  OG1       11.8350   12.6600   30.0830 O.3    89  THR89      -0.2208
     60  CG2       10.5390   11.1570   31.4340 C.3    89  THR89       0.0379
     61  N         12.6200   15.3940   31.5720 N.am   90  ASP90      -0.1971
     62  CA        13.8520   16.2230   31.3030 C.3    90  ASP90       0.1709
     63  C         14.4930   16.7400   32.5980 C.2    90  ASP90       0.2293
     64  O         15.7390   16.7330   32.6860 O.2    90  ASP90      -0.2864
     65  CB        13.5340   17.4160   30.4330 C.3    90  ASP90       0.1436
     66  CG        13.1680   17.0260   29.0170 C.2    90  ASP90       0.3671
     67  OD1       13.3320   15.8450   28.5940 O.co2  90  ASP90      -0.2456
     68  OD2       12.6550   17.8380   28.2380 O.co2  90  ASP90      -0.2456
     69  N          7.0790    9.3820   31.5230 N.3   114  ALA114     -0.1231
     70  CA         7.0020    8.4540   30.4030 C.3   114  ALA114      0.1694
     71  C          7.8760    9.1030   29.3300 C.2   114  ALA114      0.2591
     72  O          7.8970   10.3400   29.2220 O.2   114  ALA114     -0.2718
     73  CB         5.4930    8.3400   29.8900 C.3   114  ALA114      0.0304
     74  N          8.5750    8.2690   28.5580 N.am  115  MET115     -0.1979
     75  CA         9.3530    8.7330   27.4330 C.3   115  MET115      0.1605
     76  C          8.5600    8.8140   26.1310 C.2   115  MET115      0.2287
     77  O          8.9890    9.5070   25.1780 O.2   115  MET115     -0.2864
     78  CB        10.5880    7.8240   27.2340 C.3   115  MET115      0.0413
     79  CG        11.5780    8.0830   28.3930 C.3   115  MET115      0.0598
     80  SD        12.3750    9.7080   28.3230 S.3   115  MET115     -0.1393
     81  CE        13.5410    9.3990   26.9220 C.3   115  MET115      0.0692
     82  N         19.0180   11.0610   33.7530 N.3   162  LYS162     -0.1245
     83  CA        18.5640   10.7180   32.4370 C.3   162  LYS162      0.1561
     84  C         19.8140   10.4490   31.5380 C.2   162  LYS162      0.2260
     85  O         20.6020   11.3450   31.2630 O.2   162  LYS162     -0.2867
     86  CB        17.6650   11.8680   31.8990 C.3   162  LYS162      0.0271
     87  CG        17.0600   11.5640   30.5020 C.3   162  LYS162      0.0035
     88  CD        15.9200   12.6330   30.0980 C.3   162  LYS162      0.0206
     89  CE        15.1720   12.1760   28.8780 C.3   162  LYS162      0.1093
     90  NZ        14.0080   13.0580   28.7170 N.3   162  LYS162     -0.1314
@<TRIPOS>BOND
     1    12    13    1
     2    13    14    1
     3    13    16    1
     4    15    14    2
     5    16    17    1
     6    19    17   ar
     7    19    21   ar
     8    17    18   ar
     9    21    22   ar
    10    18    20   ar
    11    22    20   ar
    12    22    23    1
    13    77    76    2
    14    24    25    1
    15    76    75    1
    16    11     9    1
    17    49    47   am
    18    29    28    1
    19    25    28    1
    20    25    26    1
    21    81    80    1
    22    10     9    1
    23    78    75    1
    24    78    79    1
    25    27    26    2
    26    75    74    1
    27    28    30    1
    28     9     6    1
    29    47    46    1
    30    47    48    2
    31     8     7    2
    32    68    66   ar
    33    46    45    1
    34     6     7    1
    35     6     5    1
    36    80    79    1
    37    74    71   am
    38    67    66   ar
    39    90    89    1
    40    89    88    1
    41    66    65    1
    42    45    42    1
    43    72    71    2
    44    71    70    1
    45     5     3   am
    46     4     3    2
    47    73    70    1
    48    59    58    1
    49    88    87    1
    50     3     2    1
    51    32    31    1
    52    32    33    1
    53    70    69    1
    54    65    62    1
    55    87    86    1
    56    42    41    1
    57    42    43    1
    58    41    37   am
    59    43    44    2
    60    85    84    2
    61    33    34    2
    62    33    35   am
    63     2     1    1
    64    62    61    1
    65    62    63    1
    66    58    60    1
    67    58    55    1
    68    84    83    1
    69    61    56   am
    70    35    36    1
    71    86    83    1
    72    54    55    1
    73    54    52   am
    74    56    55    1
    75    56    57    2
    76    37    36    1
    77    37    38    2
    78    83    82    1
    79    63    64    2
    80    51    52    1
    81    51    50    1
    82    36    39    1
    83    40    39    1
    84    52    53    2
