@<TRIPOS>MOLECULE
tmp/1nnuA01.pdb
 130 123 0 0 0
SMALL
GASTEIGER

@<TRIPOS>ATOM
      1  N         50.0340   86.3990   34.9040 N.3   121  ALA121     -0.1231
      2  CA        50.5060   86.8380   33.6050 C.3   121  ALA121      0.1694
      3  C         52.0110   86.6020   33.5690 C.2   121  ALA121      0.2592
      4  O         52.6530   86.4940   34.6120 O.2   121  ALA121     -0.2718
      5  CB        50.1890   88.3150   33.3940 C.3   121  ALA121      0.0304
      6  N         52.5730   86.5000   32.3730 N.am  122  ASN122     -0.1960
      7  CA        54.0010   86.2860   32.2530 C.3   122  ASN122      0.1819
      8  C         54.4590   86.5720   30.8410 C.2   122  ASN122      0.2621
      9  O         53.9290   86.0150   29.8750 O.2   122  ASN122     -0.2715
     10  CB        54.3550   84.8540   32.6460 C.3   122  ASN122      0.1195
     11  CG        55.8360   84.6810   32.9420 C.2   122  ASN122      0.2630
     12  OD1       56.6610   84.5660   32.0310 O.2   122  ASN122     -0.2716
     13  ND2       56.1800   84.6720   34.2250 N.am  122  ASN122     -0.0877
     14  N         55.4390   87.4610   30.7270 N.am  123  ALA123     -0.1963
     15  CA        55.9890   87.8310   29.4320 C.3   123  ALA123      0.1728
     16  C         57.4920   88.0680   29.5730 C.2   123  ALA123      0.2616
     17  O         57.9200   89.1110   30.0630 O.2   123  ALA123     -0.2715
     18  CB        55.2890   89.0890   28.9060 C.3   123  ALA123      0.0334
     19  N         58.2850   87.0930   29.1480 N.am  124  LYS124     -0.1977
     20  CA        59.7400   87.1900   29.2290 C.3   124  LYS124      0.1596
     21  C         60.3230   88.4700   28.6420 C.2   124  LYS124      0.2287
     22  O         61.3440   88.9580   29.1110 O.2   124  LYS124     -0.2864
     23  CB        60.3960   86.0100   28.5120 C.3   124  LYS124      0.0298
     24  CG        60.3580   84.6940   29.2570 C.3   124  LYS124      0.0038
     25  CD        61.0620   83.6130   28.4340 C.3   124  LYS124      0.0206
     26  CE        61.0250   82.2480   29.1220 C.3   124  LYS124      0.1093
     27  NZ        61.6490   81.1880   28.2690 N.3   124  LYS124     -0.1314
     28  N         58.6390   91.5830   28.2210 N.3   126  VAL126     -0.1245
     29  CA        57.8070   92.7590   28.4570 C.3   126  VAL126      0.1561
     30  C         58.5710   94.0790   28.2980 C.2   126  VAL126      0.2260
     31  O         57.9660   95.1310   28.0660 O.2   126  VAL126     -0.2867
     32  CB        57.1750   92.7150   29.8690 C.3   126  VAL126      0.0252
     33  CG1       58.2380   92.9550   30.9340 C.3   126  VAL126      0.0019
     34  CG2       56.0660   93.7430   29.9730 C.3   126  VAL126      0.0019
     35  N         42.5420   91.7030   33.1370 N.3   170  THR170     -0.1203
     36  CA        43.1060   92.1630   31.8860 C.3   170  THR170      0.1994
     37  C         43.4700   93.6330   32.0320 C.2   170  THR170      0.2617
     38  O         43.2610   94.2330   33.0850 O.2   170  THR170     -0.2717
     39  CB        42.1230   91.9360   30.6900 C.3   170  THR170      0.1784
     40  OG1       42.7630   92.3150   29.4640 O.3   170  THR170     -0.2211
     41  CG2       40.8420   92.7400   30.8680 C.3   170  THR170      0.0376
     42  N         44.0390   94.2040   30.9840 N.am  171  TYR171     -0.1975
     43  CA        44.4510   95.5930   31.0210 C.3   171  TYR171      0.1639
     44  C         44.0510   96.2440   29.7110 C.2   171  TYR171      0.2290
     45  O         44.1590   95.6320   28.6480 O.2   171  TYR171     -0.2864
     46  CB        45.9700   95.6700   31.2360 C.3   171  TYR171      0.0560
     47  CG        46.5160   97.0700   31.3810 C.ar  171  TYR171     -0.0198
     48  CD1       45.9380   97.9720   32.2680 C.ar  171  TYR171     -0.0009
     49  CD2       47.6000   97.4970   30.6180 C.ar  171  TYR171     -0.0009
     50  CE1       46.4170   99.2690   32.3880 C.ar  171  TYR171      0.0417
     51  CE2       48.0920   98.7950   30.7340 C.ar  171  TYR171      0.0417
     52  CZ        47.4910   99.6760   31.6170 C.ar  171  TYR171      0.1957
     53  OH        47.9350  100.9770   31.7090 O.3   171  TYR171     -0.2866
     54  N         54.1830   98.6090   27.7190 N.3   181  TYR181     -0.1241
     55  CA        53.5160   97.3300   27.9490 C.3   181  TYR181      0.1605
     56  C         53.8420   96.4520   26.7510 C.2   181  TYR181      0.2264
     57  O         52.9570   96.1140   25.9640 O.2   181  TYR181     -0.2867
     58  CB        52.0070   97.5570   28.0250 C.3   181  TYR181      0.0534
     59  CG        51.2220   96.4580   28.6990 C.ar  181  TYR181     -0.0201
     60  CD1       51.3610   96.2130   30.0670 C.ar  181  TYR181     -0.0009
     61  CD2       50.3170   95.6810   27.9800 C.ar  181  TYR181     -0.0009
     62  CE1       50.6130   95.2250   30.6970 C.ar  181  TYR181      0.0417
     63  CE2       49.5640   94.6930   28.6010 C.ar  181  TYR181      0.0417
     64  CZ        49.7130   94.4710   29.9590 C.ar  181  TYR181      0.1957
     65  OH        48.9390   93.5190   30.5860 O.3   181  TYR181     -0.2866
     66  N         52.3900   91.4060   25.8510 N.3   185  MET185     -0.1245
     67  CA        51.3930   91.4050   26.9110 C.3   185  MET185      0.1570
     68  C         50.1020   91.9330   26.3070 C.2   185  MET185      0.2261
     69  O         49.0370   91.3270   26.4670 O.2   185  MET185     -0.2867
     70  CB        51.8120   92.2970   28.0790 C.3   185  MET185      0.0387
     71  CG        52.5790   91.5630   29.1590 C.3   185  MET185      0.0595
     72  SD        51.7220   90.0650   29.6990 S.3   185  MET185     -0.1393
     73  CE        50.2450   90.7740   30.3360 C.3   185  MET185      0.0692
     74  N         46.5820   90.0570   26.2820 N.3   189  LYS189     -0.1245
     75  CA        45.3920   90.5870   26.9330 C.3   189  LYS189      0.1561
     76  C         44.2530   90.6940   25.9250 C.2   189  LYS189      0.2260
     77  O         43.0820   90.5110   26.2690 O.2   189  LYS189     -0.2867
     78  CB        45.6910   91.9540   27.5580 C.3   189  LYS189      0.0271
     79  CG        46.6320   91.8760   28.7640 C.3   189  LYS189      0.0035
     80  CD        46.0950   90.8910   29.8130 C.3   189  LYS189      0.0206
     81  CE        46.9170   90.9270   31.0870 C.3   189  LYS189      0.1093
     82  NZ        46.4500   89.9430   32.1000 N.3   189  LYS189     -0.1314
     83  N         42.7650   98.8490   36.8370 N.3   217  GLY217     -0.1210
     84  CA        43.5850  100.0340   36.7230 C.3   217  GLY217      0.1940
     85  C         44.9600   99.6740   37.2440 C.2   217  GLY217      0.2454
     86  O         45.1930   98.5160   37.5790 O.2   217  GLY217     -0.2732
     87  N         45.8840  100.6400   37.3590 N.am  218  PRO218     -0.2717
     88  CA        47.2460  100.3930   37.8410 C.3   218  PRO218      0.1535
     89  C         47.3350  100.0490   39.3190 C.2   218  PRO218      0.2598
     90  O         46.6250  100.6210   40.1420 O.2   218  PRO218     -0.2715
     91  CB        47.9740  101.7060   37.5330 C.3   218  PRO218      0.0310
     92  CG        47.0180  102.4920   36.6510 C.3   218  PRO218      0.0237
     93  CD        45.6760  102.0750   37.1310 C.3   218  PRO218      0.0939
     94  N         48.2240   99.1240   39.6510 N.am  219  LEU219     -0.1978
     95  CA        48.4420   98.7060   41.0310 C.3   219  LEU219      0.1596
     96  C         49.9290   98.4000   41.1830 C.2   219  LEU219      0.2287
     97  O         50.4780   97.5700   40.4540 O.2   219  LEU219     -0.2864
     98  CB        47.6250   97.4500   41.3530 C.3   219  LEU219      0.0297
     99  CG        47.8020   96.8480   42.7530 C.3   219  LEU219      0.0022
    100  CD1       47.0410   97.6810   43.7820 C.3   219  LEU219      0.0001
    101  CD2       47.2840   95.4160   42.7630 C.3   219  LEU219      0.0001
    102  N         52.1340   96.4180   42.1160 N.3   221  SER221     -0.1217
    103  CA        52.3500   95.0490   42.5680 C.3   221  SER221      0.1889
    104  C         53.7960   94.6730   42.2580 C.2   221  SER221      0.2288
    105  O         54.5190   95.4340   41.6120 O.2   221  SER221     -0.2866
    106  CB        51.3890   94.0890   41.8520 C.3   221  SER221      0.2089
    107  OG        51.6230   94.0630   40.4540 O.3   221  SER221     -0.2183
    108  N         55.0000   92.3610   40.2230 N.3   223  ALA223     -0.1231
    109  CA        55.1840   92.1910   38.7880 C.3   223  ALA223      0.1694
    110  C         55.1620   93.5260   38.0590 C.2   223  ALA223      0.2591
    111  O         55.8520   93.6950   37.0510 O.2   223  ALA223     -0.2718
    112  CB        54.0970   91.2810   38.2280 C.3   223  ALA223      0.0304
    113  N         54.3590   94.4650   38.5600 N.am  224  ALA224     -0.1980
    114  CA        54.2470   95.7850   37.9510 C.3   224  ALA224      0.1597
    115  C         55.5920   96.4890   38.0140 C.2   224  ALA224      0.2287
    116  O         56.0110   97.1300   37.0540 O.2   224  ALA224     -0.2864
    117  CB        53.1860   96.6140   38.6700 C.3   224  ALA224      0.0319
    118  N         58.3780   95.2110   37.8840 N.3   226  ALA226     -0.1231
    119  CA        59.2320   94.5790   36.8860 C.3   226  ALA226      0.1694
    120  C         59.2530   95.3560   35.5780 C.2   226  ALA226      0.2591
    121  O         60.3180   95.6360   35.0350 O.2   226  ALA226     -0.2718
    122  CB        58.7630   93.1570   36.6320 C.3   226  ALA226      0.0304
    123  N         58.0740   95.6970   35.0690 N.am  227  ILE227     -0.1980
    124  CA        57.9640   96.4430   33.8170 C.3   227  ILE227      0.1595
    125  C         58.7940   97.7230   33.8670 C.2   227  ILE227      0.2287
    126  O         58.3080   98.7660   34.3030 O.2   227  ILE227     -0.2864
    127  CB        56.5010   96.8320   33.5280 C.3   227  ILE227      0.0276
    128  CG1       55.6050   95.5970   33.6220 C.3   227  ILE227      0.0022
    129  CG2       56.3980   97.4660   32.1510 C.3   227  ILE227      0.0022
    130  CD1       54.1390   95.8830   33.3770 C.3   227  ILE227      0.0001
@<TRIPOS>BOND
     1    66    67    1
     2    76    77    2
     3    76    75    1
     4    57    56    2
     5    74    75    1
     6    68    69    2
     7    68    67    1
     8    56    55    1
     9    67    70    1
    10    75    78    1
    11    78    79    1
    12    54    55    1
    13    55    58    1
    14    61    63   ar
    15    61    59   ar
    16    58    59    1
    17    31    30    2
    18    70    71    1
    19    28    29    1
    20    27    26    1
    21    30    29    1
    22    25    26    1
    23    25    24    1
    24    29    32    1
    25    23    20    1
    26    23    24    1
    27    63    64   ar
    28    21    22    2
    29    21    20    1
    30    45    44    2
    31    59    60   ar
    32    79    80    1
    33    18    15    1
    34    19    20    1
    35    19    16   am
    36    71    72    1
    37    15    16    1
    38    15    14    1
    39    40    39    1
    40    16    17    2
    41    72    73    1
    42    44    43    1
    43    80    81    1
    44    32    34    1
    45    32    33    1
    46     9     8    2
    47    64    65    1
    48    64    62   ar
    49    60    62   ar
    50    49    51   ar
    51    49    47   ar
    52    39    41    1
    53    39    36    1
    54    14     8   am
    55    51    52   ar
    56     8     7    1
    57    42    43    1
    58    42    37   am
    59    43    46    1
    60    81    82    1
    61    46    47    1
    62    47    48   ar
    63    52    53    1
    64    52    50   ar
    65    36    37    1
    66    36    35    1
    67    12    11    2
    68    37    38    2
    69   129   127    1
    70     7     6    1
    71     7    10    1
    72    48    50   ar
    73     6     3   am
    74    10    11    1
    75    11    13   am
    76   130   128    1
    77     5     2    1
    78   127   128    1
    79   127   124    1
    80     3     2    1
    81     3     4    2
    82     2     1    1
    83   124   125    1
    84   124   123    1
    85   125   126    2
    86   121   120    2
    87   123   120   am
    88   120   119    1
    89   122   119    1
    90    92    93    1
    91    92    91    1
    92    84    83    1
    93    84    85    1
    94   119   118    1
    95   111   110    2
    96   116   115    2
    97    93    87    1
    98    85    87   am
    99    85    86    2
   100    87    88    1
   101    91    88    1
   102    88    89    1
   103   114   115    1
   104   114   113    1
   105   114   117    1
   106   110   113   am
   107   110   109    1
   108   112   109    1
   109   109   108    1
   110    89    94   am
   111    89    90    2
   112    94    95    1
   113    97    96    2
   114   107   106    1
   115    95    96    1
   116    95    98    1
   117    98    99    1
   118   105   104    2
   119   106   103    1
   120   102   103    1
   121   104   103    1
   122    99   101    1
   123    99   100    1
