@<TRIPOS>MOLECULE
tmp/1nnyA00.pdb
 224 214 0 0 0
SMALL
GASTEIGER

@<TRIPOS>ATOM
      1  N         23.6000   16.9140   26.1890 N.3    19  TYR19      -0.1241
      2  CA        24.1320   18.2440   25.9210 C.3    19  TYR19       0.1605
      3  C         23.0750   19.1080   25.2380 C.2    19  TYR19       0.2264
      4  O         22.8290   20.2440   25.6470 O.2    19  TYR19      -0.2867
      5  CB        25.3870   18.1680   25.0430 C.3    19  TYR19       0.0534
      6  CG        25.9500   19.5360   24.7520 C.ar   19  TYR19      -0.0201
      7  CD1       26.2590   20.4070   25.7940 C.ar   19  TYR19      -0.0009
      8  CD2       26.0880   19.9990   23.4480 C.ar   19  TYR19      -0.0009
      9  CE1       26.6790   21.7060   25.5520 C.ar   19  TYR19       0.0417
     10  CE2       26.5130   21.3110   23.1910 C.ar   19  TYR19       0.0417
     11  CZ        26.8030   22.1580   24.2530 C.ar   19  TYR19       0.1957
     12  OH        27.2080   23.4580   24.0340 O.3    19  TYR19      -0.2866
     13  N         21.3680   22.5980   26.2080 N.3    23  ARG23      -0.1245
     14  CA        21.2990   23.7520   25.3300 C.3    23  ARG23       0.1563
     15  C         19.8610   24.2440   25.2680 C.2    23  ARG23       0.2260
     16  O         19.5920   25.4380   25.4050 O.2    23  ARG23      -0.2867
     17  CB        21.7640   23.3790   23.9270 C.3    23  ARG23       0.0307
     18  CG        23.2460   23.0910   23.7870 C.3    23  ARG23       0.0489
     19  CD        23.6110   23.0260   22.3120 C.3    23  ARG23       0.2205
     20  NE        23.0350   24.1580   21.5830 N.pl3  23  ARG23      -0.0865
     21  CZ        23.1380   24.3500   20.2690 C.cat  23  ARG23       0.5346
     22  NH1       23.8050   23.4780   19.5220 N.pl3  23  ARG23       0.1354
     23  NH2       22.5670   25.4090   19.6960 N.pl3  23  ARG23       0.1354
     24  N         18.7790   25.7040   28.8030 N.3    26  ALA26      -0.1231
     25  CA        19.5440   26.8710   29.2440 C.3    26  ALA26       0.1694
     26  C         18.7710   28.1930   29.2490 C.2    26  ALA26       0.2593
     27  O         17.9450   28.4450   28.3710 O.2    26  ALA26      -0.2718
     28  CB        20.7960   27.0050   28.3950 C.3    26  ALA26       0.0304
     29  N         19.0630   29.0380   30.2370 N.am   27  SER27      -0.1938
     30  CA        18.4020   30.3310   30.3850 C.3    27  SER27       0.2055
     31  C         18.7200   31.2670   29.2210 C.2    27  SER27       0.2643
     32  O         19.7860   31.1890   28.6090 O.2    27  SER27      -0.2714
     33  CB        18.8360   31.0290   31.6860 C.3    27  SER27       0.2130
     34  OG        18.8890   30.1490   32.8010 O.3    27  SER27      -0.2179
     35  N         17.8000   32.1810   28.9470 N.am   28  ASP28      -0.1971
     36  CA        17.9790   33.1460   27.8780 C.3    28  ASP28       0.1709
     37  C         17.6770   34.5520   28.4070 C.2    28  ASP28       0.2293
     38  O         16.5310   34.8650   28.6950 O.2    28  ASP28      -0.2864
     39  CB        17.0370   32.7930   26.7270 C.3    28  ASP28       0.1436
     40  CG        17.2770   33.6370   25.5010 C.2    28  ASP28       0.3671
     41  OD1       16.5840   33.4000   24.4920 O.co2  28  ASP28      -0.2456
     42  OD2       18.1490   34.5300   25.5410 O.co2  28  ASP28      -0.2456
     43  N         33.7810   37.5400   19.8170 N.3    45  TYR45      -0.1227
     44  CA        32.8730   36.8230   18.9460 C.3    45  TYR45       0.1736
     45  C         31.4990   37.4490   19.0910 C.2    45  TYR45       0.2595
     46  O         31.0140   37.6800   20.2060 O.2    45  TYR45      -0.2718
     47  CB        32.8410   35.3480   19.3170 C.3    45  TYR45       0.0548
     48  CG        34.2110   34.7150   19.3660 C.ar   45  TYR45      -0.0200
     49  CD1       35.0020   34.6180   18.2140 C.ar   45  TYR45      -0.0009
     50  CD2       34.7230   34.2020   20.5670 C.ar   45  TYR45      -0.0009
     51  CE1       36.2710   34.0240   18.2540 C.ar   45  TYR45       0.0417
     52  CE2       35.9860   33.6050   20.6240 C.ar   45  TYR45       0.0417
     53  CZ        36.7580   33.5180   19.4630 C.ar   45  TYR45       0.1957
     54  OH        38.0070   32.9250   19.5150 O.3    45  TYR45      -0.2866
     55  N         30.8810   37.7390   17.9510 N.am   46  ARG46      -0.1966
     56  CA        29.5730   38.3710   17.9150 C.3    46  ARG46       0.1729
     57  C         28.5070   37.4750   18.5480 C.2    46  ARG46       0.2616
     58  O         27.4860   37.9700   19.0320 O.2    46  ARG46      -0.2715
     59  CB        29.2090   38.7120   16.4590 C.3    46  ARG46       0.0348
     60  CG        28.2560   39.8920   16.2940 C.3    46  ARG46       0.0492
     61  CD        27.8640   40.0490   14.8310 C.3    46  ARG46       0.2205
     62  NE        26.8420   41.0740   14.6150 N.pl3  46  ARG46      -0.0865
     63  CZ        26.3700   41.4170   13.4170 C.cat  46  ARG46       0.5346
     64  NH1       26.8270   40.8170   12.3210 N.pl3  46  ARG46       0.1354
     65  NH2       25.4410   42.3640   13.3140 N.pl3  46  ARG46       0.1354
     66  N         28.7520   36.1650   18.5600 N.am   47  ASP47      -0.1957
     67  CA        27.7980   35.2300   19.1510 C.3    47  ASP47       0.1840
     68  C         28.1060   34.8120   20.6200 C.2    47  ASP47       0.2621
     69  O         27.5400   33.8430   21.1460 O.2    47  ASP47      -0.2715
     70  CB        27.6270   33.9940   18.2330 C.3    47  ASP47       0.1450
     71  CG        28.9280   33.2330   17.9800 C.2    47  ASP47       0.3671
     72  OD1       30.0370   33.8110   18.1210 O.co2  47  ASP47      -0.2456
     73  OD2       28.8270   32.0390   17.6160 O.co2  47  ASP47      -0.2456
     74  N         28.9880   35.5600   21.2770 N.am   48  VAL48      -0.1977
     75  CA        29.3280   35.2740   22.6740 C.3    48  VAL48       0.1596
     76  C         29.2600   36.5540   23.5040 C.2    48  VAL48       0.2287
     77  O         30.2220   37.3220   23.5520 O.2    48  VAL48      -0.2864
     78  CB        30.7310   34.6860   22.7990 C.3    48  VAL48       0.0276
     79  CG1       31.0470   34.4350   24.2730 C.3    48  VAL48       0.0022
     80  CG2       30.8270   33.3760   21.9900 C.3    48  VAL48       0.0022
     81  N         25.2970   38.4600   29.7430 N.3    51  PHE51      -0.1241
     82  CA        23.9290   38.8930   30.0320 C.3    51  PHE51       0.1605
     83  C         24.0670   40.2310   30.7670 C.2    51  PHE51       0.2264
     84  O         25.0210   40.4270   31.5200 O.2    51  PHE51      -0.2867
     85  CB        23.2200   37.9090   30.9620 C.3    51  PHE51       0.0534
     86  CG        23.0790   36.5160   30.4150 C.ar   51  PHE51      -0.0203
     87  CD1       22.6670   36.2940   29.1010 C.ar   51  PHE51      -0.0042
     88  CD2       23.2900   35.4150   31.2420 C.ar   51  PHE51      -0.0042
     89  CE1       22.4630   34.9830   28.6220 C.ar   51  PHE51      -0.0003
     90  CE2       23.0900   34.1200   30.7760 C.ar   51  PHE51      -0.0003
     91  CZ        22.6740   33.9040   29.4560 C.ar   51  PHE51      -0.0000
     92  N         46.5070   29.2100   18.6720 N.3   114  GLU114     -0.1231
     93  CA        46.0540   27.8380   18.5260 C.3   114  GLU114      0.1699
     94  C         45.4720   27.7260   17.1170 C.2   114  GLU114      0.2592
     95  O         44.7780   28.6290   16.6460 O.2   114  GLU114     -0.2718
     96  CB        44.9720   27.5050   19.5660 C.3   114  GLU114      0.0402
     97  CG        45.3880   27.6820   21.0460 C.3   114  GLU114      0.1161
     98  CD        44.3960   27.0420   22.0120 C.2   114  GLU114      0.3649
     99  OE1       43.1970   26.9750   21.6730 O.co2 114  GLU114     -0.2457
    100  OE2       44.8050   26.6110   23.1130 O.co2 114  GLU114     -0.2457
    101  N         45.7580   26.6230   16.4410 N.am  115  LYS115     -0.1980
    102  CA        45.2470   26.4100   15.0920 C.3   115  LYS115      0.1596
    103  C         45.5900   27.5230   14.1070 C.2   115  LYS115      0.2287
    104  O         44.7460   27.9270   13.3090 O.2   115  LYS115     -0.2864
    105  CB        43.7310   26.2280   15.1150 C.3   115  LYS115      0.0298
    106  CG        43.2560   25.0690   15.9600 C.3   115  LYS115      0.0038
    107  CD        42.0550   24.4220   15.3230 C.3   115  LYS115      0.0206
    108  CE        41.1090   23.8800   16.3700 C.3   115  LYS115      0.1093
    109  NZ        40.3160   24.9920   16.9590 N.3   115  LYS115     -0.1314
    110  N         44.1000   33.3950   19.5790 N.3   119  LYS119     -0.1245
    111  CA        42.9280   33.0650   20.3730 C.3   119  LYS119      0.1561
    112  C         42.7840   33.9920   21.5800 C.2   119  LYS119      0.2260
    113  O         41.7470   33.9910   22.2460 O.2   119  LYS119     -0.2867
    114  CB        43.0260   31.6140   20.8460 C.3   119  LYS119      0.0271
    115  CG        42.9340   30.5680   19.7390 C.3   119  LYS119      0.0035
    116  CD        41.4850   30.2070   19.4200 C.3   119  LYS119      0.0206
    117  CE        41.0490   30.7440   18.0690 C.3   119  LYS119      0.1093
    118  NZ        41.8360   30.1380   16.9680 N.3   119  LYS119     -0.1314
    119  N         46.2570   22.0380   26.8730 N.3   178  TRP178     -0.1241
    120  CA        44.9500   21.5800   26.4190 C.3   178  TRP178      0.1605
    121  C         45.1690   21.1770   24.9510 C.2   178  TRP178      0.2264
    122  O         45.7680   21.9250   24.1830 O.2   178  TRP178     -0.2867
    123  CB        43.9320   22.7140   26.5230 C.3   178  TRP178      0.0550
    124  CG        42.5390   22.2840   26.2160 C.ar  178  TRP178      0.0003
    125  CD1       41.9820   22.1240   24.9810 C.ar  178  TRP178      0.0946
    126  CD2       41.5250   21.9180   27.1650 C.ar  178  TRP178      0.0152
    127  NE1       40.6860   21.6810   25.0970 N.ar  178  TRP178     -0.2442
    128  CE2       40.3810   21.5450   26.4280 C.ar  178  TRP178      0.0810
    129  CE3       41.4730   21.8710   28.5690 C.ar  178  TRP178      0.0012
    130  CZ2       39.1970   21.1310   27.0460 C.ar  178  TRP178      0.0191
    131  CZ3       40.2990   21.4610   29.1780 C.ar  178  TRP178      0.0001
    132  CH2       39.1770   21.0960   28.4190 C.ar  178  TRP178      0.0015
    133  N         39.2890   18.3990   20.6060 N.3   182  GLY182     -0.1225
    134  CA        38.6800   17.6310   21.6790 C.3   182  GLY182      0.1811
    135  C         39.1740   18.0020   23.0720 C.2   182  GLY182      0.2280
    136  O         39.6070   19.1290   23.3200 O.2   182  GLY182     -0.2866
    137  N         39.4380   31.4970   28.3890 N.3   214  CYS214     -0.1221
    138  CA        40.1260   30.7220   27.3590 C.3   214  CYS214      0.1808
    139  C         40.0140   31.7260   26.2090 C.2   214  CYS214      0.2602
    140  O         40.5260   32.8500   26.3270 O.2   214  CYS214     -0.2717
    141  CB        39.3990   29.4000   27.0690 C.3   214  CYS214      0.0970
    142  SG        37.6190   29.4370   27.3060 S.3   214  CYS214     -0.0800
    143  N         39.3380   31.3740   25.1190 N.am  215  SER215     -0.1938
    144  CA        39.1970   32.3420   24.0420 C.3   215  SER215      0.2055
    145  C         37.8400   33.0520   24.1300 C.2   215  SER215      0.2642
    146  O         37.7750   34.2870   24.1080 O.2   215  SER215     -0.2714
    147  CB        39.3650   31.6730   22.6780 C.3   215  SER215      0.2130
    148  OG        39.5340   32.6700   21.6940 O.3   215  SER215     -0.2179
    149  N         36.7590   32.2830   24.2220 N.am  216  ALA216     -0.1977
    150  CA        35.4230   32.8790   24.3490 C.3   216  ALA216      0.1597
    151  C         34.9910   32.9200   25.8380 C.2   216  ALA216      0.2287
    152  O         33.9860   33.5480   26.1900 O.2   216  ALA216     -0.2864
    153  CB        34.3900   32.0850   23.5120 C.3   216  ALA216      0.0319
    154  N         33.8580   30.4050   27.7390 N.3   218  ILE218     -0.1231
    155  CA        32.6340   29.6510   27.9910 C.3   218  ILE218      0.1692
    156  C         32.8450   28.1440   27.9090 C.2   218  ILE218      0.2593
    157  O         32.2490   27.3850   28.6760 O.2   218  ILE218     -0.2718
    158  CB        31.4700   30.0370   27.0100 C.3   218  ILE218      0.0266
    159  CG1       31.8670   29.7670   25.5560 C.3   218  ILE218      0.0019
    160  CG2       31.0970   31.5040   27.1800 C.3   218  ILE218      0.0020
    161  CD1       30.6910   29.8410   24.5640 C.3   218  ILE218      0.0001
    162  N         33.6980   27.7110   26.9830 N.am  219  GLY219     -0.1942
    163  CA        33.9380   26.2860   26.8210 C.3   219  GLY219      0.2014
    164  C         34.8300   25.6900   27.8920 C.2   219  GLY219      0.2638
    165  O         34.3410   25.1040   28.8680 O.2   219  GLY219     -0.2714
    166  N         36.1400   25.8430   27.7120 N.am  220  ARG220     -0.1977
    167  CA        37.1000   25.3050   28.6610 C.3   220  ARG220      0.1597
    168  C         36.9230   25.9700   30.0220 C.2   220  ARG220      0.2287
    169  O         37.1580   25.3640   31.0570 O.2   220  ARG220     -0.2864
    170  CB        38.5260   25.5360   28.1530 C.3   220  ARG220      0.0334
    171  CG        38.7750   25.0210   26.7370 C.3   220  ARG220      0.0492
    172  CD        40.2120   25.2650   26.3020 C.3   220  ARG220      0.2205
    173  NE        40.3840   24.9960   24.8750 N.pl3 220  ARG220     -0.0865
    174  CZ        41.4650   25.3130   24.1600 C.cat 220  ARG220      0.5346
    175  NH1       42.5100   25.9170   24.7250 N.pl3 220  ARG220      0.1354
    176  NH2       41.4840   25.0360   22.8590 N.pl3 220  ARG220      0.1354
    177  N         24.6600   28.6240   33.8790 N.3   253  ARG253     -0.1245
    178  CA        24.2690   29.2520   32.6290 C.3   253  ARG253      0.1563
    179  C         23.2770   30.3830   32.8130 C.2   253  ARG253      0.2260
    180  O         22.9130   31.0610   31.8560 O.2   253  ARG253     -0.2867
    181  CB        23.7150   28.2160   31.6570 C.3   253  ARG253      0.0307
    182  CG        24.7950   27.4340   30.9390 C.3   253  ARG253      0.0489
    183  CD        24.2130   26.7120   29.7560 C.3   253  ARG253      0.2205
    184  NE        25.2240   26.1840   28.8470 N.pl3 253  ARG253     -0.0865
    185  CZ        24.9790   25.8970   27.5710 C.cat 253  ARG253      0.5346
    186  NH1       23.7680   26.0930   27.0740 N.pl3 253  ARG253      0.1354
    187  NH2       25.9420   25.4190   26.7970 N.pl3 253  ARG253      0.1354
    188  N         25.9960   32.5910   29.0590 N.3   257  MET257     -0.1230
    189  CA        25.5730   31.6440   28.0210 C.3   257  MET257      0.1702
    190  C         26.6940   30.7200   27.5650 C.2   257  MET257      0.2592
    191  O         27.8710   31.0300   27.7350 O.2   257  MET257     -0.2718
    192  CB        25.0770   32.4070   26.7850 C.3   257  MET257      0.0401
    193  CG        26.1080   33.4190   26.2500 C.3   257  MET257      0.0596
    194  SD        25.8410   34.1930   24.5990 S.3   257  MET257     -0.1393
    195  CE        24.3570   35.1830   24.8390 C.3   257  MET257      0.0692
    196  N         26.3080   29.5860   26.9850 N.am  258  GLY258     -0.1957
    197  CA        27.2570   28.6480   26.4110 C.3   258  GLY258      0.1869
    198  C         28.2120   27.8000   27.2180 C.2   258  GLY258      0.2309
    199  O         28.8700   26.9330   26.6310 O.2   258  GLY258     -0.2863
    200  N         30.7360   23.9720   25.7420 N.3   261  GLN261     -0.1231
    201  CA        30.3110   24.0460   24.3390 C.3   261  GLN261      0.1698
    202  C         30.1300   22.7510   23.5380 C.2   261  GLN261      0.2592
    203  O         29.5090   22.7640   22.4730 O.2   261  GLN261     -0.2718
    204  CB        31.2510   24.9850   23.5790 C.3   261  GLN261      0.0381
    205  CG        30.7900   26.4250   23.6100 C.3   261  GLN261      0.0905
    206  CD        29.4460   26.5830   22.9310 C.2   261  GLN261      0.2608
    207  OE1       29.3190   26.3450   21.7290 O.2   261  GLN261     -0.2717
    208  NE2       28.4320   26.9720   23.6950 N.am  261  GLN261     -0.0878
    209  N         30.6660   21.6420   24.0380 N.am  262  THR262     -0.1953
    210  CA        30.5230   20.3670   23.3520 C.3   262  THR262      0.1897
    211  C         30.1950   19.2530   24.3180 C.2   262  THR262      0.2313
    212  O         30.4290   19.3660   25.5240 O.2   262  THR262     -0.2863
    213  CB        31.8040   19.9540   22.6350 C.3   262  THR262      0.1794
    214  OG1       32.8360   19.7180   23.6000 O.3   262  THR262     -0.2208
    215  CG2       32.2270   21.0250   21.6610 C.3   262  THR262      0.0378
    216  N         33.2190   18.1830   26.2350 N.3   265  GLN265     -0.1245
    217  CA        33.5460   18.9600   27.4160 C.3   265  GLN265      0.1566
    218  C         32.6090   18.5550   28.5510 C.2   265  GLN265      0.2260
    219  O         33.0150   18.5240   29.7070 O.2   265  GLN265     -0.2867
    220  CB        33.4410   20.4630   27.1290 C.3   265  GLN265      0.0367
    221  CG        34.4490   20.9710   26.1060 C.3   265  GLN265      0.0905
    222  CD        34.4470   22.4950   25.9720 C.2   265  GLN265      0.2608
    223  OE1       33.4410   23.1570   26.2470 O.2   265  GLN265     -0.2717
    224  NE2       35.5730   23.0540   25.5300 N.am  265  GLN265     -0.0878
@<TRIPOS>BOND
     1    64    63    1
     2   104   103    2
     3    65    63    1
     4    63    62    2
     5   103   102    1
     6    62    61    1
     7    61    60    1
     8   102   105    1
     9   102   101    1
    10   105   106    1
    11   107   106    1
    12   107   108    1
    13    60    59    1
    14   108   109    1
    15   101    94   am
    16    59    56    1
    17    95    94    2
    18   118   117    1
    19    94    93    1
    20    73    71   ar
    21    56    55    1
    22    56    57    1
    23    55    45   am
    24    71    72   ar
    25    71    70    1
    26   117   116    1
    27    49    51   ar
    28    49    48   ar
    29    70    67    1
    30    51    53   ar
    31    93    92    1
    32    93    96    1
    33    57    66   am
    34    57    58    2
    35    66    67    1
    36    44    45    1
    37    44    47    1
    38    44    43    1
    39    45    46    2
    40    67    68    1
    41    47    48    1
    42    48    50   ar
    43   116   115    1
    44    53    54    1
    45    53    52   ar
    46    22    21    1
    47    96    97    1
    48   110   111    1
    49    23    21    1
    50   115   114    1
    51    21    20    2
    52   111   114    1
    53   111   112    1
    54    50    52   ar
    55   133   134    1
    56    68    69    2
    57    68    74   am
    58    97    98    1
    59    74    75    1
    60   112   113    2
    61    20    19    1
    62   215   213    1
    63    99    98   ar
    64   134   135    1
    65   148   147    1
    66   207   206    2
    67    80    78    1
    68    98   100   ar
    69    19    18    1
    70   203   202    2
    71   213   210    1
    72   213   214    1
    73    75    78    1
    74    75    76    1
    75   147   144    1
    76    78    79    1
    77   176   174    1
    78   206   205    1
    79   206   208   am
    80   135   136    2
    81    10     8   ar
    82    10    11   ar
    83   210   209    1
    84   210   211    1
    85     8     6   ar
    86    76    77    2
    87   153   150    1
    88   202   209   am
    89   202   201    1
    90   204   205    1
    91   204   201    1
    92    18    17    1
    93    17    14    1
    94    12    11    1
    95   144   145    1
    96   144   143    1
    97   146   145    2
    98   145   149   am
    99   174   175    1
   100   174   173    2
   101   122   121    2
   102   149   150    1
   103    11     9   ar
   104   211   212    2
   105   201   200    1
   106   150   151    1
   107    41    40   ar
   108   161   159    1
   109   194   195    1
   110   194   193    1
   111     6     5    1
   112     6     7   ar
   113   173   172    1
   114   121   120    1
   115   125   127   ar
   116   125   124   ar
   117     5     2    1
   118   127   128   ar
   119   143   139   am
   120     3     4    2
   121     3     2    1
   122    15    14    1
   123    15    16    2
   124    14    13    1
   125    40    42   ar
   126    40    39    1
   127   224   222   am
   128     9     7   ar
   129   159   158    1
   130   151   152    2
   131     2     1    1
   132   222   221    1
   133   222   223    2
   134   221   220    1
   135   139   140    2
   136   139   138    1
   137   124   123    1
   138   124   126   ar
   139   216   217    1
   140   193   192    1
   141   172   171    1
   142   197   196    1
   143   197   198    1
   144   120   123    1
   145   120   119    1
   146   128   130   ar
   147   128   126   ar
   148   199   198    2
   149    39    36    1
   150   171   170    1
   151   192   189    1
   152   187   185    1
   153   163   162    1
   154   163   164    1
   155   162   156   am
   156   196   190   am
   157   158   160    1
   158   158   155    1
   159   130   132   ar
   160   141   142    1
   161   141   138    1
   162   186   185    1
   163   220   217    1
   164   126   129   ar
   165   138   137    1
   166   217   218    1
   167   190   191    2
   168   190   189    1
   169   185   184    2
   170   166   164   am
   171   166   167    1
   172   154   155    1
   173    36    37    1
   174    36    35    1
   175   164   165    2
   176   156   155    1
   177   156   157    2
   178   189   188    1
   179   170   167    1
   180    27    26    2
   181    28    25    1
   182    37    38    2
   183   132   131   ar
   184   218   219    2
   185   129   131   ar
   186    32    31    2
   187    89    87   ar
   188    89    91   ar
   189   167   168    1
   190    24    25    1
   191   184   183    1
   192    35    31   am
   193    87    86   ar
   194    31    30    1
   195    25    26    1
   196    26    29   am
   197    91    90   ar
   198    81    82    1
   199   183   182    1
   200   168   169    2
   201    82    83    1
   202    82    85    1
   203    29    30    1
   204    30    33    1
   205    86    85    1
   206    86    88   ar
   207    83    84    2
   208    90    88   ar
   209   182   181    1
   210   181   178    1
   211    33    34    1
   212   180   179    2
   213   178   179    1
   214   178   177    1
