@<TRIPOS>MOLECULE
tmp/1no3A00.pdb
 118 111 0 0 0
SMALL
GASTEIGER

@<TRIPOS>ATOM
      1  N         13.2330    6.9820   11.3390 N.3   271  LEU271     -0.1245
      2  CA        13.3430    6.9750   12.8010 C.3   271  LEU271      0.1561
      3  C         12.5620    8.1060   13.4590 C.2   271  LEU271      0.2260
      4  O         11.7700    7.8740   14.3660 O.2   271  LEU271     -0.2867
      5  CB        14.7990    7.1710   13.1880 C.3   271  LEU271      0.0270
      6  CG        15.4780    6.1740   14.0830 C.3   271  LEU271      0.0019
      7  CD1       14.6400    4.9310   14.2290 C.3   271  LEU271      0.0001
      8  CD2       16.7790    5.8950   13.4060 C.3   271  LEU271      0.0001
      9  N         23.0670   -1.2270   24.5800 N.3   508  GLN508     -0.1231
     10  CA        22.4900   -0.0510   23.9320 C.3   508  GLN508      0.1698
     11  C         23.1180    1.2770   24.3480 C.2   508  GLN508      0.2592
     12  O         23.4620    2.1020   23.4900 O.2   508  GLN508     -0.2718
     13  CB        20.9860   -0.0430   24.1710 C.3   508  GLN508      0.0381
     14  CG        20.2190    1.0460   23.4240 C.3   508  GLN508      0.0905
     15  CD        20.2320    0.8450   21.9200 C.2   508  GLN508      0.2608
     16  OE1       20.3340    1.8030   21.2120 O.2   508  GLN508     -0.2717
     17  NE2       20.0840   -0.3930   21.4400 N.am  508  GLN508     -0.0878
     18  N         23.2820    1.4910   25.6520 N.am  509  LEU509     -0.1980
     19  CA        23.8150    2.7590   26.1390 C.3   509  LEU509      0.1596
     20  C         25.3450    2.8790   26.0330 C.2   509  LEU509      0.2287
     21  O         25.8820    3.9800   25.8290 O.2   509  LEU509     -0.2864
     22  CB        23.3700    3.0190   27.6020 C.3   509  LEU509      0.0297
     23  CG        21.9920    3.6670   27.8310 C.3   509  LEU509      0.0022
     24  CD1       21.8850    5.0080   27.1260 C.3   509  LEU509      0.0001
     25  CD2       20.8470    2.7570   27.3390 C.3   509  LEU509      0.0001
     26  N         27.0990    0.5140   22.1890 N.3   512  HIS512     -0.1226
     27  CA        26.6260    1.1430   20.9680 C.3   512  HIS512      0.1752
     28  C         26.6860    2.6690   21.0790 C.2   512  HIS512      0.2596
     29  O         27.4810    3.3080   20.3950 O.2   512  HIS512     -0.2718
     30  CB        25.1900    0.6900   20.6770 C.3   512  HIS512      0.0759
     31  CG        24.5790    1.3620   19.4920 C.ar  512  HIS512      0.0818
     32  ND1       23.3100    1.8900   19.5100 N.ar  512  HIS512     -0.2268
     33  CD2       25.0670    1.5880   18.2500 C.ar  512  HIS512      0.1154
     34  CE1       23.0400    2.4040   18.3250 C.ar  512  HIS512      0.1986
     35  NE2       24.0890    2.2370   17.5450 N.ar  512  HIS512     -0.2212
     36  N         25.8410    3.2490   21.9290 N.am  513  TRP513     -0.1976
     37  CA        25.7500    4.7110   22.0060 C.3   513  TRP513      0.1640
     38  C         27.0560    5.3770   22.4880 C.2   513  TRP513      0.2290
     39  O         27.6260    6.1550   21.7430 O.2   513  TRP513     -0.2864
     40  CB        24.5820    5.1980   22.8610 C.3   513  TRP513      0.0576
     41  CG        24.6830    6.6900   23.1430 C.ar  513  TRP513      0.0006
     42  CD1       25.0320    7.2850   24.3250 C.ar  513  TRP513      0.0946
     43  CD2       24.4890    7.7620   22.2030 C.ar  513  TRP513      0.0152
     44  NE1       25.0920    8.6490   24.1660 N.ar  513  TRP513     -0.2442
     45  CE2       24.7150    8.9720   22.8890 C.ar  513  TRP513      0.0810
     46  CE3       24.1280    7.8180   20.8580 C.ar  513  TRP513      0.0012
     47  CZ2       24.6460   10.2180   22.2570 C.ar  513  TRP513      0.0191
     48  CZ3       24.0550    9.0480   20.2330 C.ar  513  TRP513      0.0001
     49  CH2       24.3310   10.2280   20.9220 C.ar  513  TRP513      0.0015
     50  N         28.9960    6.1080   18.6260 N.3   517  HIS517     -0.1241
     51  CA        28.3560    7.4140   18.3940 C.3   517  HIS517      0.1621
     52  C         28.9660    8.6120   19.1680 C.2   517  HIS517      0.2264
     53  O         29.4800    9.5580   18.5350 O.2   517  HIS517     -0.2867
     54  CB        26.8570    7.3270   18.7080 C.3   517  HIS517      0.0745
     55  CG        26.0780    6.4790   17.7420 C.ar  517  HIS517      0.0817
     56  ND1       25.2820    7.0220   16.7550 N.ar  517  HIS517     -0.2268
     57  CD2       25.9690    5.1320   17.6140 C.ar  517  HIS517      0.1154
     58  CE1       24.7150    6.0450   16.0620 C.ar  517  HIS517      0.1986
     59  NE2       25.1420    4.8860   16.5340 N.ar  517  HIS517     -0.2212
     60  N         23.0360   11.5180   12.4160 N.3   551  ILE551     -0.1245
     61  CA        22.3470   10.5390   13.2700 C.3   551  ILE551      0.1561
     62  C         22.4440   10.9040   14.7450 C.2   551  ILE551      0.2260
     63  O         21.4940   10.6760   15.4800 O.2   551  ILE551     -0.2867
     64  CB        22.8920    9.1060   13.1400 C.3   551  ILE551      0.0252
     65  CG1       23.2610    8.8380   11.7370 C.3   551  ILE551      0.0019
     66  CG2       21.7770    8.0910   13.4690 C.3   551  ILE551      0.0019
     67  CD1       22.0460    8.5460   10.9610 C.3   551  ILE551      0.0001
     68  N         19.5740   11.5250   17.3610 N.3   555  ALA555     -0.1245
     69  CA        19.4930   10.8320   18.6690 C.3   555  ALA555      0.1562
     70  C         19.2030   11.7850   19.8370 C.2   555  ALA555      0.2260
     71  O         18.3740   11.4730   20.6870 O.2   555  ALA555     -0.2867
     72  CB        20.7500    9.9830   18.9700 C.3   555  ALA555      0.0290
     73  N         15.9460   10.0430   20.5250 N.3   559  LEU559     -0.1231
     74  CA        16.3160    8.7210   21.0390 C.3   559  LEU559      0.1693
     75  C         16.7630    8.7040   22.4980 C.2   559  LEU559      0.2591
     76  O         16.3730    7.8810   23.3040 O.2   559  LEU559     -0.2718
     77  CB        17.4460    8.1910   20.1680 C.3   559  LEU559      0.0284
     78  CG        17.1210    7.2770   18.9860 C.3   559  LEU559      0.0019
     79  CD1       15.7580    7.4600   18.3350 C.3   559  LEU559      0.0001
     80  CD2       18.1890    7.3290   17.9180 C.3   559  LEU559      0.0001
     81  N         17.5450    9.6890   22.8530 N.am  560  VAL560     -0.1980
     82  CA        18.2770    9.6930   24.0910 C.3   560  VAL560      0.1595
     83  C         17.7950   10.9100   24.9810 C.2   560  VAL560      0.2287
     84  O         18.2680   11.1590   26.0920 O.2   560  VAL560     -0.2864
     85  CB        19.7770    9.6100   23.6040 C.3   560  VAL560      0.0276
     86  CG1       20.5610   10.9440   23.6690 C.3   560  VAL560      0.0022
     87  CG2       20.4930    8.3800   24.1440 C.3   560  VAL560      0.0022
     88  N         14.6480    5.4340   24.1530 N.3   566  ILE566     -0.1245
     89  CA        15.5190    4.6800   25.0530 C.3   566  ILE566      0.1561
     90  C         15.0540    4.6960   26.5170 C.2   566  ILE566      0.2260
     91  O         15.0390    3.6330   27.1800 O.2   566  ILE566     -0.2867
     92  CB        17.0050    5.1080   24.8760 C.3   566  ILE566      0.0252
     93  CG1       17.5340    4.4890   23.5870 C.3   566  ILE566      0.0019
     94  CG2       17.8800    4.7190   26.0760 C.3   566  ILE566      0.0019
     95  CD1       18.5220    5.3120   22.9440 C.3   566  ILE566      0.0001
     96  N         12.1120    0.3770   15.9440 N.3   763  VAL763     -0.1245
     97  CA        13.3840    1.1070   15.9700 C.3   763  VAL763      0.1561
     98  C         14.6070    0.2630   15.5450 C.2   763  VAL763      0.2260
     99  O         15.4200    0.6790   14.6790 O.2   763  VAL763     -0.2867
    100  CB        13.5780    1.7660   17.3310 C.3   763  VAL763      0.0252
    101  CG1       14.9400    2.4290   17.4400 C.3   763  VAL763      0.0019
    102  CG2       12.5200    2.8530   17.4890 C.3   763  VAL763      0.0019
    103  N         17.3710    0.4640   12.3650 N.3   767  LEU767     -0.1245
    104  CA        18.7830    0.5510   12.7840 C.3   767  LEU767      0.1561
    105  C         19.6490   -0.5700   12.2220 C.2   767  LEU767      0.2260
    106  O         20.8490   -0.3950   12.0770 O.2   767  LEU767     -0.2867
    107  CB        18.9050    0.4240   14.2970 C.3   767  LEU767      0.0270
    108  CG        19.1470    1.6260   15.1840 C.3   767  LEU767      0.0019
    109  CD1       18.5400    2.8250   14.5390 C.3   767  LEU767      0.0001
    110  CD2       18.6180    1.3640   16.5980 C.3   767  LEU767      0.0001
    111  N         24.0720    5.0810   10.7740 N.3   851  ILE851     -0.1245
    112  CA        22.7500    4.8380   11.3090 C.3   851  ILE851      0.1561
    113  C         22.9080    4.3910   12.7700 C.2   851  ILE851      0.2260
    114  O         21.9560    4.4800   13.5080 O.2   851  ILE851     -0.2867
    115  CB        21.9540    3.8250   10.3800 C.3   851  ILE851      0.0252
    116  CG1       20.4890    3.6440   10.8090 C.3   851  ILE851      0.0019
    117  CG2       22.6780    2.5150   10.2460 C.3   851  ILE851      0.0019
    118  CD1       19.6330    4.9230   10.6950 C.3   851  ILE851      0.0001
@<TRIPOS>BOND
     1   117   115    1
     2   115   116    1
     3   115   112    1
     4   118   116    1
     5   111   112    1
     6    67    65    1
     7   112   113    1
     8     1     2    1
     9    65    64    1
    10   106   105    2
    11   105   104    1
    12   103   104    1
    13    60    61    1
    14   113   114    2
    15   104   107    1
    16     2     5    1
    17     2     3    1
    18    64    61    1
    19    64    66    1
    20     5     6    1
    21    61    62    1
    22     8     6    1
    23     3     4    2
    24     6     7    1
    25   107   108    1
    26   109   108    1
    27    99    98    2
    28    62    63    2
    29   108   110    1
    30    98    97    1
    31    96    97    1
    32    97   100    1
    33    58    59   ar
    34    58    56   ar
    35    59    57   ar
    36    56    55   ar
    37   100   101    1
    38   100   102    1
    39    68    69    1
    40    35    33   ar
    41    35    34   ar
    42    57    55   ar
    43    55    54    1
    44    80    78    1
    45    33    31   ar
    46    34    32   ar
    47    79    78    1
    48    51    50    1
    49    51    54    1
    50    51    52    1
    51    53    52    2
    52    69    72    1
    53    69    70    1
    54    78    77    1
    55    31    32   ar
    56    31    30    1
    57    70    71    2
    58    77    74    1
    59    48    46   ar
    60    48    49   ar
    61    29    28    2
    62    73    74    1
    63    30    27    1
    64    46    43   ar
    65    49    47   ar
    66    27    28    1
    67    27    26    1
    68    74    75    1
    69    28    36   am
    70    16    15    2
    71    17    15   am
    72    39    38    2
    73    15    14    1
    74    36    37    1
    75    37    38    1
    76    37    40    1
    77    43    45   ar
    78    43    41   ar
    79    47    45   ar
    80    75    81   am
    81    75    76    2
    82    81    82    1
    83    40    41    1
    84    45    44   ar
    85    95    93    1
    86    41    42   ar
    87    14    13    1
    88    12    11    2
    89    93    92    1
    90    85    86    1
    91    85    82    1
    92    85    87    1
    93    10    13    1
    94    10    11    1
    95    10     9    1
    96    82    83    1
    97    88    89    1
    98    44    42   ar
    99    11    18   am
   100    92    89    1
   101    92    94    1
   102    83    84    2
   103    89    90    1
   104    18    19    1
   105    21    20    2
   106    20    19    1
   107    19    22    1
   108    90    91    2
   109    24    23    1
   110    25    23    1
   111    22    23    1
