@<TRIPOS>MOLECULE
tmp/1no9B01.pdb
 140 139 0 0 0
SMALL
GASTEIGER

@<TRIPOS>ATOM
      1  N         14.6220   -6.7640   11.9670 N.3    28  CYS28      -0.1235
      2  CA        14.4290   -6.3020   13.3540 C.3    28  CYS28       0.1677
      3  C         13.7230   -4.9540   13.3420 C.2    28  CYS28       0.2270
      4  O         13.5400   -4.3600   12.2880 O.2    28  CYS28      -0.2867
      5  CB        15.7910   -6.0450   13.9840 C.3    28  CYS28       0.0956
      6  SG        16.6430   -7.4340   14.8090 S.3    28  CYS28      -0.0801
      7  N         22.7190   -6.9280   18.5020 N.3    43  HIS43      -0.1241
      8  CA        22.5730   -8.3120   18.0720 C.3    43  HIS43       0.1621
      9  C         21.7640   -8.5220   16.7910 C.2    43  HIS43       0.2264
     10  O         21.7840   -9.6150   16.2240 O.2    43  HIS43      -0.2867
     11  CB        22.0680   -9.2040   19.2160 C.3    43  HIS43       0.0745
     12  CG        20.5910   -9.2440   19.3650 C.ar   43  HIS43       0.0817
     13  ND1       19.9000   -8.3820   20.1950 N.ar   43  HIS43      -0.2268
     14  CD2       19.6580  -10.0310   18.7750 C.ar   43  HIS43       0.1154
     15  CE1       18.6060   -8.6330   20.1050 C.ar   43  HIS43       0.1986
     16  NE2       18.4350   -9.6290   19.2480 N.ar   43  HIS43      -0.2212
     17  N         25.6540  -17.2890   15.3820 N.3    50  TRP50      -0.1241
     18  CA        24.7840  -17.6920   14.2780 C.3    50  TRP50       0.1605
     19  C         25.3110  -17.1640   12.9530 C.2    50  TRP50       0.2264
     20  O         24.5550  -17.0530   11.9820 O.2    50  TRP50      -0.2867
     21  CB        23.3640  -17.1630   14.4670 C.3    50  TRP50       0.0550
     22  CG        22.6320  -17.7070   15.6610 C.ar   50  TRP50       0.0003
     23  CD1       22.9810  -18.7830   16.4260 C.ar   50  TRP50       0.0946
     24  CD2       21.4150  -17.1940   16.2190 C.ar   50  TRP50       0.0152
     25  NE1       22.0570  -18.9700   17.4320 N.ar   50  TRP50      -0.2442
     26  CE2       21.0850  -18.0090   17.3260 C.ar   50  TRP50       0.0810
     27  CE3       20.5720  -16.1230   15.8890 C.ar   50  TRP50       0.0012
     28  CZ2       19.9420  -17.7840   18.1120 C.ar   50  TRP50       0.0191
     29  CZ3       19.4310  -15.8970   16.6720 C.ar   50  TRP50       0.0001
     30  CH2       19.1300  -16.7260   17.7700 C.ar   50  TRP50       0.0015
     31  N         24.5670  -10.6940   26.1300 N.3    96  LEU96      -0.1245
     32  CA        24.0720   -9.5740   25.3220 C.3    96  LEU96       0.1561
     33  C         24.0740   -8.2470   26.0880 C.2    96  LEU96       0.2260
     34  O         23.2520   -7.3540   25.8390 O.2    96  LEU96      -0.2867
     35  CB        22.6560   -9.8550   24.7780 C.3    96  LEU96       0.0270
     36  CG        22.5570  -10.9910   23.7490 C.3    96  LEU96       0.0019
     37  CD1       21.1470  -11.0330   23.1470 C.3    96  LEU96       0.0001
     38  CD2       23.5760  -10.7900   22.6390 C.3    96  LEU96       0.0001
     39  N          4.0330   -9.7620   25.1920 N.3   193  ASP193     -0.1225
     40  CA         5.4890   -9.7620   25.1490 C.3   193  ASP193      0.1805
     41  C          5.9280   -9.4470   23.7080 C.2   193  ASP193      0.2598
     42  O          5.1110   -9.3910   22.7950 O.2   193  ASP193     -0.2718
     43  CB         5.9710  -11.1780   25.5450 C.3   193  ASP193      0.1424
     44  CG         7.4680  -11.2700   25.8270 C.2   193  ASP193      0.3668
     45  OD1        8.1720  -10.2320   25.8650 O.co2 193  ASP193     -0.2456
     46  OD2        7.9390  -12.4280   26.0240 O.co2 193  ASP193     -0.2456
     47  N          7.2210   -9.2170   23.5320 N.am  194  ALA194     -0.1966
     48  CA         7.8070   -9.0030   22.2310 C.3   194  ALA194      0.1728
     49  C          8.1060  -10.4310   21.7660 C.2   194  ALA194      0.2616
     50  O          7.9950  -11.3640   22.5540 O.2   194  ALA194     -0.2715
     51  CB         9.1130   -8.2340   22.3660 C.3   194  ALA194      0.0334
     52  N          8.4690  -10.6100   20.5050 N.am  195  CYS195     -0.1954
     53  CA         8.8180  -11.9480   20.0090 C.3   195  CYS195      0.1843
     54  C          9.7860  -11.7640   18.8510 C.2   195  CYS195      0.2625
     55  O         10.1860  -10.6310   18.5520 O.2   195  CYS195     -0.2714
     56  CB         7.5730  -12.7180   19.5460 C.3   195  CYS195      0.0997
     57  SG         7.7700  -14.5490   19.5130 S.3   195  CYS195     -0.0797
     58  N         10.1720  -12.8670   18.2090 N.am  196  GLU196     -0.1977
     59  CA        11.1030  -12.8240   17.0790 C.3   196  GLU196      0.1602
     60  C         10.6470  -11.7630   16.0950 C.2   196  GLU196      0.2287
     61  O          9.4800  -11.7370   15.7480 O.2   196  GLU196     -0.2864
     62  CB        11.1230  -14.1710   16.3570 C.3   196  GLU196      0.0415
     63  CG        12.5200  -14.6750   16.0610 C.3   196  GLU196      0.1163
     64  CD        13.3700  -13.6610   15.3220 C.2   196  GLU196      0.3649
     65  OE1       13.0940  -13.3930   14.1260 O.co2 196  GLU196     -0.2457
     66  OE2       14.3180  -13.1240   15.9450 O.co2 196  GLU196     -0.2457
     67  N         12.8150   -7.5450   18.1580 N.3   199  SER199     -0.1217
     68  CA        14.0660   -7.0410   18.7360 C.3   199  SER199      0.1889
     69  C         14.6230   -5.8560   17.9830 C.2   199  SER199      0.2288
     70  O         14.4790   -5.7610   16.7440 O.2   199  SER199     -0.2866
     71  CB        15.0860   -8.1730   18.7610 C.3   199  SER199      0.2089
     72  OG        14.4700   -9.2980   19.4590 O.3   199  SER199     -0.2183
     73  N         14.2640   -3.4490   22.7590 N.3   219  VAL219     -0.1231
     74  CA        13.9120   -4.8580   22.8840 C.3   219  VAL219      0.1692
     75  C         15.2100   -5.6310   22.6400 C.2   219  VAL219      0.2593
     76  O         15.7850   -5.5700   21.5410 O.2   219  VAL219     -0.2718
     77  CB        12.8690   -5.2660   21.8140 C.3   219  VAL219      0.0266
     78  CG1       12.4480   -6.7560   22.0260 C.3   219  VAL219      0.0020
     79  CG2       11.6510   -4.3390   21.8900 C.3   219  VAL219      0.0020
     80  N         15.6580   -6.3780   23.6450 N.am  220  SER220     -0.1938
     81  CA        16.9160   -7.0880   23.5050 C.3   220  SER220      0.2055
     82  C         16.8020   -8.6070   23.4360 C.2   220  SER220      0.2643
     83  O         17.1350   -9.1880   22.4180 O.2   220  SER220     -0.2714
     84  CB        17.8640   -6.6560   24.6270 C.3   220  SER220      0.2130
     85  OG        19.1120   -7.3060   24.5190 O.3   220  SER220     -0.2179
     86  N         16.3400   -9.2570   24.4990 N.am  221  TRP221     -0.1959
     87  CA        16.2350  -10.7020   24.4520 C.3   221  TRP221      0.1771
     88  C         15.1840  -11.2690   25.3720 C.2   221  TRP221      0.2620
     89  O         14.6410  -10.5860   26.2510 O.2   221  TRP221     -0.2715
     90  CB        17.5920  -11.3690   24.7710 C.3   221  TRP221      0.0590
     91  CG        18.1290  -11.0250   26.1340 C.ar  221  TRP221      0.0006
     92  CD1       18.8500   -9.9130   26.4760 C.ar  221  TRP221      0.0946
     93  CD2       17.9910  -11.7980   27.3360 C.ar  221  TRP221      0.0152
     94  NE1       19.1710   -9.9480   27.8120 N.ar  221  TRP221     -0.2442
     95  CE2       18.6530  -11.0930   28.3630 C.ar  221  TRP221      0.0810
     96  CE3       17.3680  -13.0200   27.6420 C.ar  221  TRP221      0.0012
     97  CZ2       18.7150  -11.5670   29.6840 C.ar  221  TRP221      0.0191
     98  CZ3       17.4300  -13.4920   28.9600 C.ar  221  TRP221      0.0001
     99  CH2       18.0970  -12.7640   29.9590 C.ar  221  TRP221      0.0015
    100  N         14.8760  -12.5360   25.1410 N.am  222  GLY222     -0.1954
    101  CA        13.8970  -13.2100   25.9600 C.3   222  GLY222      0.1869
    102  C         14.0460  -14.6910   25.6960 C.2   222  GLY222      0.2309
    103  O         14.6830  -15.0890   24.7220 O.2   222  GLY222     -0.2863
    104  N         11.8930  -17.5170   24.7310 N.3   224  GLY224     -0.1210
    105  CA        10.5690  -17.8520   24.2410 C.3   224  GLY224      0.1956
    106  C          9.8060  -16.5440   24.1110 C.2   224  GLY224      0.2612
    107  O         10.4240  -15.4780   24.1360 O.2   224  GLY224     -0.2717
    108  N          8.4860  -16.6160   23.9720 N.am  225  CYS225     -0.1970
    109  CA         7.6620  -15.4120   23.8690 C.3   225  CYS225      0.1712
    110  C          6.4160  -15.5520   24.6980 C.2   225  CYS225      0.2296
    111  O          5.6270  -16.4860   24.4950 O.2   225  CYS225     -0.2864
    112  CB         7.2300  -15.1640   22.4330 C.3   225  CYS225      0.0983
    113  SG         8.6230  -14.9800   21.3070 S.3   225  CYS225     -0.0798
    114  N         10.6300  -10.2450   29.2500 N.3   232  GLY232     -0.1210
    115  CA        11.4480   -9.7600   28.1580 C.3   232  GLY232      0.1956
    116  C         12.5000   -8.8400   28.7550 C.2   232  GLY232      0.2612
    117  O         12.2270   -8.1550   29.7480 O.2   232  GLY232     -0.2717
    118  N         13.6990   -8.8410   28.1690 N.am  233  PHE233     -0.1962
    119  CA        14.7850   -8.0030   28.6350 C.3   233  PHE233      0.1771
    120  C         15.0800   -6.9280   27.6490 C.2   233  PHE233      0.2619
    121  O         15.0730   -7.1650   26.4330 O.2   233  PHE233     -0.2715
    122  CB        16.0390   -8.8220   28.9060 C.3   233  PHE233      0.0574
    123  CG        15.9590   -9.5720   30.1910 C.ar  233  PHE233     -0.0200
    124  CD1       15.2640  -10.7610   30.2640 C.ar  233  PHE233     -0.0042
    125  CD2       16.4960   -9.0320   31.3460 C.ar  233  PHE233     -0.0042
    126  CE1       15.0910  -11.4180   31.4840 C.ar  233  PHE233     -0.0003
    127  CE2       16.3330   -9.6750   32.5730 C.ar  233  PHE233     -0.0003
    128  CZ        15.6290  -10.8690   32.6330 C.ar  233  PHE233     -0.0000
    129  N         15.3680   -5.7540   28.1990 N.am  234  TYR234     -0.1974
    130  CA        15.5920   -4.5530   27.4210 C.3   234  TYR234      0.1639
    131  C         16.8820   -3.8410   27.7520 C.2   234  TYR234      0.2290
    132  O         17.2780   -3.7610   28.9100 O.2   234  TYR234     -0.2864
    133  CB        14.4250   -3.5800   27.6660 C.3   234  TYR234      0.0560
    134  CG        13.0660   -4.1520   27.3190 C.ar  234  TYR234     -0.0198
    135  CD1       12.4240   -5.0780   28.1680 C.ar  234  TYR234     -0.0009
    136  CD2       12.4620   -3.8550   26.0940 C.ar  234  TYR234     -0.0009
    137  CE1       11.2460   -5.6790   27.7940 C.ar  234  TYR234      0.0417
    138  CE2       11.2890   -4.4570   25.7220 C.ar  234  TYR234      0.0417
    139  CZ        10.6860   -5.3710   26.5710 C.ar  234  TYR234      0.1957
    140  OH         9.5280   -5.9870   26.1590 O.3   234  TYR234     -0.2866
@<TRIPOS>BOND
     1     1     2    1
     2    20    19    2
     3     4     3    2
     4    19    18    1
     5     3     2    1
     6     2     5    1
     7     5     6    1
     8    65    64   ar
     9    18    21    1
    10    18    17    1
    11    21    22    1
    12    64    66   ar
    13    64    63    1
    14    22    24   ar
    15    22    23   ar
    16    61    60    2
    17    27    24   ar
    18    27    29   ar
    19    63    62    1
    20    60    59    1
    21    24    26   ar
    22    10     9    2
    23    62    59    1
    24    23    25   ar
    25    29    30   ar
    26    70    69    2
    27     9     8    1
    28    59    58    1
    29    26    25   ar
    30    26    28   ar
    31    30    28   ar
    32    69    68    1
    33     8     7    1
    34     8    11    1
    35    67    68    1
    36    58    54   am
    37    55    54    2
    38    68    71    1
    39    71    72    1
    40    14    16   ar
    41    14    12   ar
    42    54    53    1
    43    11    12    1
    44    16    15   ar
    45    12    13   ar
    46    57    56    1
    47    57   113    1
    48    56    53    1
    49    53    52    1
    50    15    13   ar
    51    52    49   am
    52   113   112    1
    53    76    75    2
    54    49    48    1
    55    49    50    2
    56    77    79    1
    57    77    78    1
    58    77    74    1
    59    48    51    1
    60    48    47    1
    61    83    82    2
    62   112   109    1
    63    38    36    1
    64    75    74    1
    65    75    80   am
    66    73    74    1
    67    42    41    2
    68    37    36    1
    69    82    81    1
    70    82    86   am
    71    81    80    1
    72    81    84    1
    73    47    41   am
    74    41    40    1
    75    36    35    1
    76   109   108    1
    77   109   110    1
    78   108   106   am
    79   106   107    2
    80   106   105    1
    81   105   104    1
    82    87    86    1
    83    87    90    1
    84    87    88    1
    85   111   110    2
    86    85    84    1
    87   103   102    2
    88    90    91    1
    89    35    32    1
    90   100    88   am
    91   100   101    1
    92    40    39    1
    93    40    43    1
    94    32    33    1
    95    32    31    1
    96    88    89    2
    97    43    44    1
    98   102   101    1
    99   138   136   ar
   100   138   139   ar
   101    44    45   ar
   102    44    46   ar
   103    34    33    2
   104   136   134   ar
   105    91    92   ar
   106    91    93   ar
   107   140   139    1
   108   121   120    2
   109    92    94   ar
   110   139   137   ar
   111   134   133    1
   112   134   135   ar
   113    93    96   ar
   114    93    95   ar
   115   130   133    1
   116   130   131    1
   117   130   129    1
   118    96    98   ar
   119   120   129   am
   120   120   119    1
   121   131   132    2
   122   137   135   ar
   123    94    95   ar
   124   115   116    1
   125   115   114    1
   126   118   119    1
   127   118   116   am
   128    95    97   ar
   129   119   122    1
   130   116   117    2
   131   122   123    1
   132    98    99   ar
   133    97    99   ar
   134   123   124   ar
   135   123   125   ar
   136   124   126   ar
   137   125   127   ar
   138   126   128   ar
   139   127   128   ar
