@<TRIPOS>MOLECULE
tmp/1noiA01.pdb
 123 116 0 0 0
SMALL
GASTEIGER

@<TRIPOS>ATOM
      1  N         44.6220    2.7990   25.9160 N.3   126  GLY126     -0.1210
      2  CA        44.4460    1.5900   25.1310 C.3   126  GLY126      0.1956
      3  C         45.6850    0.7960   24.8730 C.2   126  GLY126      0.2611
      4  O         45.5400   -0.4270   24.9700 O.2   126  GLY126     -0.2717
      5  N         46.8770    1.3630   24.5980 N.am  127  LEU127     -0.1979
      6  CA        48.0970    0.5490   24.4410 C.3   127  LEU127      0.1596
      7  C         48.3370   -0.2640   25.6980 C.2   127  LEU127      0.2287
      8  O         48.7560   -1.3930   25.5370 O.2   127  LEU127     -0.2864
      9  CB        49.3770    1.3070   24.2950 C.3   127  LEU127      0.0297
     10  CG        50.3520    0.9470   23.1890 C.3   127  LEU127      0.0022
     11  CD1       51.7370    1.1980   23.7390 C.3   127  LEU127      0.0001
     12  CD2       50.3300   -0.5070   22.8060 C.3   127  LEU127      0.0001
     13  N         45.3960   -3.1260   26.3360 N.3   130  LEU130     -0.1245
     14  CA        45.5860   -4.1680   25.3620 C.3   130  LEU130      0.1561
     15  C         46.6740   -5.0920   25.9410 C.2   130  LEU130      0.2260
     16  O         46.4020   -6.2610   26.2110 O.2   130  LEU130     -0.2867
     17  CB        46.0010   -3.4970   24.0450 C.3   130  LEU130      0.0270
     18  CG        46.1790   -4.5090   22.8860 C.3   130  LEU130      0.0019
     19  CD1       44.7860   -5.0140   22.5550 C.3   130  LEU130      0.0001
     20  CD2       46.9280   -3.9140   21.6990 C.3   130  LEU130      0.0001
     21  N         54.3870   -0.4910   18.6880 N.3   325  ASP325     -0.1239
     22  CA        54.6210    0.8640   18.1640 C.3   325  ASP325      0.1674
     23  C         56.1110    1.0520   18.0020 C.2   325  ASP325      0.2266
     24  O         56.8490    0.0640   18.1080 O.2   325  ASP325     -0.2867
     25  CB        54.1290    2.0060   19.0600 C.3   325  ASP325      0.1410
     26  CG        52.7540    2.4790   18.7270 C.2   325  ASP325      0.3668
     27  OD1       52.3450    2.4360   17.5460 O.co2 325  ASP325     -0.2456
     28  OD2       52.0580    2.9130   19.6570 O.co2 325  ASP325     -0.2456
     29  N         49.7310    0.9900   16.1750 N.3   363  HIS363     -0.1226
     30  CA        48.4820    1.1530   16.9030 C.3   363  HIS363      0.1752
     31  C         47.6760    2.4150   16.6100 C.2   363  HIS363      0.2596
     32  O         46.5590    2.5320   17.1080 O.2   363  HIS363     -0.2718
     33  CB        48.7650    1.1210   18.3700 C.3   363  HIS363      0.0759
     34  CG        49.2050   -0.1780   18.9420 C.ar  363  HIS363      0.0818
     35  ND1       48.3240   -1.1060   19.4420 N.ar  363  HIS363     -0.2268
     36  CD2       50.4140   -0.7340   19.1180 C.ar  363  HIS363      0.1154
     37  CE1       48.9420   -2.1710   19.8980 C.ar  363  HIS363      0.1986
     38  NE2       50.2250   -1.9610   19.7070 N.ar  363  HIS363     -0.2212
     39  N         48.1700    3.3660   15.8480 N.am  364  THR364     -0.1953
     40  CA        47.5110    4.6360   15.5520 C.3   364  THR364      0.1897
     41  C         48.3330    5.1250   14.3470 C.2   364  THR364      0.2313
     42  O         49.5110    4.7750   14.1780 O.2   364  THR364     -0.2863
     43  CB        47.6070    5.6910   16.7050 C.3   364  THR364      0.1794
     44  OG1       48.4720    5.2230   17.7550 O.3   364  THR364     -0.2208
     45  CG2       46.2680    5.9920   17.2830 C.3   364  THR364      0.0378
     46  N         45.6660   -3.2210   13.8710 N.3   441  VAL441     -0.1245
     47  CA        44.8540   -3.5740   15.0310 C.3   441  VAL441      0.1561
     48  C         43.3070   -3.6560   14.8720 C.2   441  VAL441      0.2260
     49  O         42.5530   -3.8160   15.8450 O.2   441  VAL441     -0.2867
     50  CB        45.5250   -2.4930   15.9170 C.3   441  VAL441      0.0252
     51  CG1       44.5850   -1.5000   16.5140 C.3   441  VAL441      0.0019
     52  CG2       46.3450   -3.2560   16.9000 C.3   441  VAL441      0.0019
     53  N         41.9430   -6.2560   17.7770 N.3   470  ASN470     -0.1240
     54  CA        41.9990   -6.2600   19.2430 C.3   470  ASN470      0.1653
     55  C         40.8750   -7.0410   19.9460 C.2   470  ASN470      0.2266
     56  O         39.8050   -7.3360   19.3890 O.2   470  ASN470     -0.2867
     57  CB        42.0320   -4.7870   19.7180 C.3   470  ASN470      0.1155
     58  CG        43.3550   -4.1110   19.3500 C.2   470  ASN470      0.2627
     59  OD1       44.4150   -4.7730   19.1480 O.2   470  ASN470     -0.2716
     60  ND2       43.3250   -2.7690   19.2530 N.am  470  ASN470     -0.0877
     61  N         40.2520    8.5480   26.8110 N.3   555  ARG555     -0.1197
     62  CA        41.0860    9.7310   27.0130 C.3   555  ARG555      0.1779
     63  C         40.3740   10.9030   26.3630 C.2   555  ARG555      0.2305
     64  O         39.7330   10.7040   25.3370 O.2   555  ARG555     -0.2863
     65  CB        42.4830    9.5420   26.3480 C.2   555  ARG555     -0.0007
     66  CG        43.4410    8.3710   26.8110 C.2   555  ARG555      0.0176
     67  CD        44.6640    8.1200   25.9040 C.3   555  ARG555      0.2464
     68  NE        44.3320    8.1660   24.4610 N.pl3 555  ARG555     -0.0815
     69  CZ        45.1550    8.3560   23.4300 C.cat 555  ARG555      0.5349
     70  NH1       46.4460    8.5360   23.6240 N.pl3 555  ARG555      0.1354
     71  NH2       44.7460    8.3730   22.1840 N.pl3 555  ARG555      0.1354
     72  N         40.1710   13.9300   18.3520 N.3   559  TYR559     -0.1227
     73  CA        39.5740   12.9050   17.4930 C.3   559  TYR559      0.1736
     74  C         38.4910   12.0020   18.1410 C.2   559  TYR559      0.2595
     75  O         37.7120   11.3830   17.4270 O.2   559  TYR559     -0.2718
     76  CB        40.6860   12.0160   16.9150 C.3   559  TYR559      0.0548
     77  CG        41.2120   10.8200   17.7490 C.ar  559  TYR559     -0.0200
     78  CD1       42.2170   10.9540   18.7420 C.ar  559  TYR559     -0.0009
     79  CD2       40.6840    9.5210   17.5040 C.ar  559  TYR559     -0.0009
     80  CE1       42.6530    9.8350   19.4460 C.ar  559  TYR559      0.0417
     81  CE2       41.1250    8.4030   18.2100 C.ar  559  TYR559      0.0417
     82  CZ        42.1150    8.5770   19.1770 C.ar  559  TYR559      0.1957
     83  OH        42.5900    7.4600   19.7920 O.3   559  TYR559     -0.2866
     84  N         38.4040   11.8540   19.4560 N.am  560  LYS560     -0.1980
     85  CA        37.4100   11.0000   20.0860 C.3   560  LYS560      0.1596
     86  C         36.0760   11.7530   20.2140 C.2   560  LYS560      0.2287
     87  O         35.0320   11.1980   20.5550 O.2   560  LYS560     -0.2864
     88  CB        37.9760   10.5610   21.4530 C.3   560  LYS560      0.0298
     89  CG        38.9970    9.4070   21.3240 C.3   560  LYS560      0.0038
     90  CD        39.7130    9.1100   22.6330 C.3   560  LYS560      0.0206
     91  CE        40.9960    8.2840   22.5690 C.3   560  LYS560      0.1093
     92  NZ        40.8510    6.8450   22.1690 N.3   560  LYS560     -0.1314
     93  N         40.2510    6.3800   14.8090 N.3   658  GLU658     -0.1231
     94  CA        40.3850    5.5040   15.9730 C.3   658  GLU658      0.1699
     95  C         40.8500    4.2170   15.3940 C.2   658  GLU658      0.2592
     96  O         40.0690    3.6280   14.6520 O.2   658  GLU658     -0.2718
     97  CB        39.0810    5.2310   16.6540 C.3   658  GLU658      0.0402
     98  CG        39.1500    4.5090   17.9600 C.3   658  GLU658      0.1161
     99  CD        39.8170    5.2760   19.0820 C.2   658  GLU658      0.3649
    100  OE1       41.0600    5.2300   19.1970 O.co2 658  GLU658     -0.2457
    101  OE2       39.1060    5.9250   19.8820 O.co2 658  GLU658     -0.2457
    102  N         42.0620    3.7240   15.6430 N.am  659  ALA659     -0.1966
    103  CA        42.5360    2.5250   14.9880 C.3   659  ALA659      0.1728
    104  C         41.6780    1.2910   15.2180 C.2   659  ALA659      0.2617
    105  O         41.5210    0.4990   14.3010 O.2   659  ALA659     -0.2715
    106  CB        43.9500    2.3320   15.4470 C.3   659  ALA659      0.0334
    107  N         41.1270    1.1180   16.3900 N.am  660  SER660     -0.1936
    108  CA        40.3310   -0.0270   16.7930 C.3   660  SER660      0.2055
    109  C         39.4540    0.3610   17.9790 C.2   660  SER660      0.2644
    110  O         38.2310    0.2040   17.8880 O.2   660  SER660     -0.2714
    111  CB        41.2210   -1.1680   17.2080 C.3   660  SER660      0.2130
    112  OG        40.5490   -2.2390   17.8400 O.3   660  SER660     -0.2179
    113  N         39.9660    0.9480   19.0590 N.am  661  GLY661     -0.1939
    114  CA        39.0840    1.0600   20.2120 C.3   661  GLY661      0.2014
    115  C         39.1020   -0.3470   20.8220 C.2   661  GLY661      0.2639
    116  O         39.5250   -1.3280   20.1780 O.2   661  GLY661     -0.2714
    117  N         38.6290   -0.4110   22.0490 N.am  662  THR662     -0.1950
    118  CA        38.7010   -1.6210   22.8520 C.3   662  THR662      0.1897
    119  C         37.6840   -1.3600   23.9620 C.2   662  THR662      0.2313
    120  O         37.0520   -2.2570   24.4990 O.2   662  THR662     -0.2863
    121  CB        40.2130   -1.6780   23.2250 C.3   662  THR662      0.1794
    122  OG1       40.8260   -2.8830   22.6660 O.3   662  THR662     -0.2208
    123  CG2       40.3320   -1.3760   24.6880 C.3   662  THR662      0.0378
@<TRIPOS>BOND
     1    46    47    1
     2    42    41    2
     3   105   104    2
     4    41    40    1
     5    96    95    2
     6    93    94    1
     7    48    47    1
     8    48    49    2
     9   103   104    1
    10   103   106    1
    11   103   102    1
    12    47    50    1
    13   104   107   am
    14    95   102   am
    15    95    94    1
    16    40    39    1
    17    40    43    1
    18    39    31   am
    19    50    51    1
    20    50    52    1
    21    94    97    1
    22    29    30    1
    23   107   108    1
    24    31    30    1
    25    31    32    2
    26    97    98    1
    27    43    45    1
    28    43    44    1
    29   108   111    1
    30   108   109    1
    31    30    33    1
    32    76    73    1
    33    76    77    1
    34   111   112    1
    35    75    74    2
    36    73    74    1
    37    73    72    1
    38    79    77   ar
    39    79    81   ar
    40    27    26   ar
    41    77    78   ar
    42    53    54    1
    43   110   109    2
    44    98    99    1
    45   109   113   am
    46    23    24    2
    47    23    22    1
    48    74    84   am
    49    22    21    1
    50    22    25    1
    51    81    82   ar
    52    33    34    1
    53    26    25    1
    54    26    28   ar
    55    78    80   ar
    56    34    36   ar
    57    34    35   ar
    58   113   114    1
    59    99   100   ar
    60    99   101   ar
    61    36    38   ar
    62    59    58    2
    63    82    80   ar
    64    82    83    1
    65    54    57    1
    66    54    55    1
    67    60    58   am
    68    58    57    1
    69    56    55    2
    70    35    37   ar
    71    84    85    1
    72    38    37   ar
    73    85    86    1
    74    85    88    1
    75   116   115    2
    76   114   115    1
    77    86    87    2
    78   115   117   am
    79    89    88    1
    80    89    90    1
    81    20    18    1
    82   117   118    1
    83    92    91    1
    84    71    69    1
    85    19    18    1
    86    91    90    1
    87   122   121    1
    88    12    10    1
    89   118   121    1
    90   118   119    1
    91    18    17    1
    92    10    11    1
    93    10     9    1
    94   121   123    1
    95    69    70    1
    96    69    68    2
    97   119   120    2
    98    17    14    1
    99     9     6    1
   100     6     5    1
   101     6     7    1
   102    68    67    1
   103     5     3   am
   104     3     4    2
   105     3     2    1
   106     2     1    1
   107    64    63    2
   108    14    15    1
   109    14    13    1
   110     8     7    2
   111    67    66    1
   112    15    16    2
   113    65    66    2
   114    65    62    1
   115    63    62    1
   116    61    62    1
