@<TRIPOS>MOLECULE
tmp/1nopD00.pdb
 130 122 0 0 0
SMALL
GASTEIGER

@<TRIPOS>ATOM
      1  N          1.8170   43.3430   60.8390 N.3    46  TYR46      -0.1241
      2  CA         1.6550   42.0600   61.4970 C.3    46  TYR46       0.1605
      3  C          1.1910   42.2580   62.9490 C.2    46  TYR46       0.2264
      4  O          0.0850   41.8300   63.2760 O.2    46  TYR46      -0.2867
      5  CB         2.9400   41.2210   61.3970 C.3    46  TYR46       0.0534
      6  CG         2.8780   39.8820   62.1240 C.ar   46  TYR46      -0.0201
      7  CD1        1.7570   39.0360   61.9920 C.ar   46  TYR46      -0.0009
      8  CD2        3.9430   39.4580   62.9250 C.ar   46  TYR46      -0.0009
      9  CE1        1.6740   37.8050   62.6740 C.ar   46  TYR46       0.0417
     10  CE2        3.8900   38.2220   63.5980 C.ar   46  TYR46       0.0417
     11  CZ         2.7450   37.4070   63.4720 C.ar   46  TYR46       0.1957
     12  OH         2.6840   36.2010   64.1360 O.3    46  TYR46      -0.2866
     13  N          0.8180   34.2350   57.4110 N.3   103  THR103     -0.1218
     14  CA         0.5380   35.4380   58.1930 C.3   103  THR103      0.1862
     15  C          0.3780   36.6110   57.2500 C.2   103  THR103      0.2287
     16  O          0.8390   36.5840   56.0890 O.2   103  THR103     -0.2866
     17  CB         1.6680   35.7710   59.2530 C.3   103  THR103      0.1770
     18  OG1        2.9420   35.8230   58.6080 O.3   103  THR103     -0.2211
     19  CG2        1.8520   34.6680   60.2980 C.3   103  THR103      0.0375
     20  N          2.0820   39.5080   56.8440 N.3   105  HIS105     -0.1241
     21  CA         3.3650   40.0200   57.3200 C.3   105  HIS105      0.1621
     22  C          3.8380   41.3860   56.7500 C.2   105  HIS105      0.2264
     23  O          4.6760   42.0190   57.3440 O.2   105  HIS105     -0.2867
     24  CB         4.4610   38.9480   57.1520 C.3   105  HIS105      0.0745
     25  CG         5.6530   39.1650   58.0330 C.ar  105  HIS105      0.0817
     26  ND1        6.9290   39.3610   57.5330 N.ar  105  HIS105     -0.2268
     27  CD2        5.7550   39.2500   59.3750 C.ar  105  HIS105      0.1154
     28  CE1        7.7680   39.5330   58.5370 C.ar  105  HIS105      0.1986
     29  NE2        7.0820   39.4720   59.6640 N.ar  105  HIS105     -0.2212
     30  N          7.0330   46.2970   62.9320 N.3   125  ASN125     -0.1240
     31  CA         5.7280   46.1720   63.5590 C.3   125  ASN125      0.1653
     32  C          5.3410   47.4850   64.2090 C.2   125  ASN125      0.2266
     33  O          6.2130   48.3090   64.5050 O.2   125  ASN125     -0.2867
     34  CB         5.7430   45.0680   64.6130 C.3   125  ASN125      0.1155
     35  CG         5.8120   43.7050   63.9940 C.2   125  ASN125      0.2627
     36  OD1        4.8050   43.2080   63.4900 O.2   125  ASN125     -0.2716
     37  ND2        7.0110   43.1050   63.9830 N.am  125  ASN125     -0.0877
     38  N         13.9780   35.9610   61.0440 N.3   242  SER242     -0.1202
     39  CA        13.2370   34.7400   61.3520 C.3   242  SER242      0.2020
     40  C         13.6000   33.6750   60.3210 C.2   242  SER242      0.2619
     41  O         13.9080   34.0060   59.1780 O.2   242  SER242     -0.2717
     42  CB        11.7310   35.0470   61.3950 C.3   242  SER242      0.2103
     43  OG        10.9510   33.8850   61.5350 O.3   242  SER242     -0.2182
     44  N         13.6260   32.4120   60.7400 N.am  243  VAL243     -0.1965
     45  CA        14.0280   31.2890   59.8630 C.3   243  VAL243      0.1727
     46  C         12.9220   30.2120   59.7960 C.2   243  VAL243      0.2616
     47  O         12.4490   29.7510   60.8410 O.2   243  VAL243     -0.2715
     48  CB        15.3740   30.6240   60.3360 C.3   243  VAL243      0.0290
     49  CG1       15.8370   29.6120   59.3610 C.3   243  VAL243      0.0023
     50  CG2       16.4790   31.6600   60.5280 C.3   243  VAL243      0.0023
     51  N         12.5090   29.8330   58.5810 N.am  244  GLY244     -0.1955
     52  CA        11.4970   28.7920   58.3900 C.3   244  GLY244      0.1869
     53  C         12.1350   27.4040   58.3280 C.2   244  GLY244      0.2309
     54  O         13.3520   27.3110   58.2880 O.2   244  GLY244     -0.2863
     55  N         12.4130   34.9850   66.2480 N.3   294  PRO294     -0.2116
     56  CA        11.6980   33.7720   66.6630 C.3   294  PRO294      0.1372
     57  C         12.0830   32.4590   65.9600 C.2   294  PRO294      0.2244
     58  O         11.1800   31.8120   65.4390 O.2   294  PRO294     -0.2868
     59  CB        10.2420   34.1390   66.3640 C.3   294  PRO294      0.0268
     60  CG        10.3390   34.9850   65.1510 C.3   294  PRO294      0.0207
     61  CD        11.6380   35.7630   65.2630 C.3   294  PRO294      0.0892
     62  N         12.9160   28.6390   66.3710 N.3   296  SER296     -0.1217
     63  CA        12.5900   27.6770   67.4230 C.3   296  SER296      0.1889
     64  C         13.5050   26.4720   67.3280 C.2   296  SER296      0.2288
     65  O         13.9330   26.1290   66.2350 O.2   296  SER296     -0.2866
     66  CB        11.1370   27.2260   67.2810 C.3   296  SER296      0.2089
     67  OG        11.0380   26.1660   66.3350 O.3   296  SER296     -0.2183
     68  N         15.8530   43.7480   62.6870 N.3   326  HIS326     -0.1241
     69  CA        14.5320   43.2640   62.3690 C.3   326  HIS326      0.1621
     70  C         14.2700   43.5760   60.8990 C.2   326  HIS326      0.2264
     71  O         13.3020   43.1130   60.3250 O.2   326  HIS326     -0.2867
     72  CB        13.4680   43.8820   63.2580 C.3   326  HIS326      0.0745
     73  CG        12.1200   43.2690   63.0830 C.ar  326  HIS326      0.0817
     74  ND1       11.1420   43.8270   62.2800 N.ar  326  HIS326     -0.2268
     75  CD2       11.5870   42.1340   63.5940 C.ar  326  HIS326      0.1154
     76  CE1       10.0650   43.0560   62.3100 C.ar  326  HIS326      0.1986
     77  NE2       10.3070   42.0330   63.1120 N.ar  326  HIS326     -0.2212
     78  N         11.0890   37.1520   55.5430 N.3   349  ASN349     -0.1240
     79  CA        12.1650   36.4400   56.2140 C.3   349  ASN349      0.1653
     80  C         12.6670   35.2230   55.4250 C.2   349  ASN349      0.2266
     81  O         12.2540   35.0120   54.2890 O.2   349  ASN349     -0.2867
     82  CB        11.7250   36.0350   57.6100 C.3   349  ASN349      0.1155
     83  CG        11.6720   37.2100   58.5500 C.2   349  ASN349      0.2627
     84  OD1       12.6990   37.8090   58.8780 O.2   349  ASN349     -0.2716
     85  ND2       10.4830   37.5370   59.0050 N.am  349  ASN349     -0.0877
     86  N         12.0320   32.0220   54.7910 N.3   351  SER351     -0.1217
     87  CA        11.0690   30.9300   54.9090 C.3   351  SER351      0.1889
     88  C         10.3550   30.7020   53.5880 C.2   351  SER351      0.2288
     89  O         10.2080   31.6460   52.7870 O.2   351  SER351     -0.2866
     90  CB        10.0310   31.2280   55.9880 C.3   351  SER351      0.2089
     91  OG         9.0910   32.1480   55.4910 O.3   351  SER351     -0.2183
     92  N          7.2000   29.9910   53.5100 N.3   353  ALA353     -0.1231
     93  CA         5.9370   30.6650   53.7140 C.3   353  ALA353      0.1694
     94  C          5.9110   32.0360   53.0070 C.2   353  ALA353      0.2591
     95  O          4.9060   32.4090   52.3660 O.2   353  ALA353     -0.2718
     96  CB         5.6980   30.8190   55.2250 C.3   353  ALA353      0.0304
     97  N          7.0420   32.7470   53.1050 N.am  354  ALA354     -0.1980
     98  CA         7.1790   34.1640   52.6940 C.3   354  ALA354      0.1597
     99  C          7.6300   34.2850   51.2470 C.2   354  ALA354      0.2287
    100  O          7.2280   35.2070   50.5250 O.2   354  ALA354     -0.2864
    101  CB         8.1870   34.8930   53.6080 C.3   354  ALA354      0.0319
    102  N          1.9480   33.5110   52.8390 N.3   369  SER369     -0.1217
    103  CA         1.9280   34.7950   53.5480 C.3   369  SER369      0.1889
    104  C          1.7910   36.0350   52.6630 C.2   369  SER369      0.2288
    105  O          1.9920   35.9770   51.4600 O.2   369  SER369     -0.2866
    106  CB         3.1960   34.9060   54.3800 C.3   369  SER369      0.2089
    107  OG         3.1030   34.0330   55.4790 O.3   369  SER369     -0.2183
    108  N          3.6670   39.4740   52.0000 N.3   371  GLU371     -0.1245
    109  CA         4.9890   40.1010   52.1780 C.3   371  GLU371      0.1567
    110  C          5.1100   41.2160   51.1460 C.2   371  GLU371      0.2260
    111  O          4.4950   41.1310   50.0800 O.2   371  GLU371     -0.2867
    112  CB         6.1460   39.0710   51.9670 C.3   371  GLU371      0.0388
    113  CG         6.0780   37.8280   52.8580 C.3   371  GLU371      0.1160
    114  CD         6.5090   38.0640   54.3070 C.2   371  GLU371      0.3649
    115  OE1        6.4480   37.0890   55.1100 O.co2 371  GLU371     -0.2457
    116  OE2        6.9040   39.2160   54.6670 O.co2 371  GLU371     -0.2457
    117  N         15.0120   31.0370   70.1230 N.3   416  TRP416     -0.1241
    118  CA        14.2880   31.7990   71.1330 C.3   416  TRP416      0.1605
    119  C         13.6880   31.0260   72.3140 C.2   416  TRP416      0.2264
    120  O         13.4680   31.5980   73.3790 O.2   416  TRP416     -0.2867
    121  CB        13.2800   32.7630   70.4910 C.3   416  TRP416      0.0550
    122  CG        12.0130   32.1540   69.9460 C.ar  416  TRP416      0.0003
    123  CD1       11.8300   30.8780   69.4800 C.ar  416  TRP416      0.0946
    124  CD2       10.7500   32.8210   69.7890 C.ar  416  TRP416      0.0152
    125  NE1       10.5280   30.7050   69.0710 N.ar  416  TRP416     -0.2442
    126  CE2        9.8410   31.8780   69.2500 C.ar  416  TRP416      0.0810
    127  CE3       10.2830   34.1210   70.0770 C.ar  416  TRP416      0.0012
    128  CZ2        8.5080   32.2000   68.9660 C.ar  416  TRP416      0.0191
    129  CZ3        8.9560   34.4350   69.8060 C.ar  416  TRP416      0.0001
    130  CH2        8.0850   33.4810   69.2560 C.ar  416  TRP416      0.0015
@<TRIPOS>BOND
     1   111   110    2
     2   100    99    2
     3   110   109    1
     4    99    98    1
     5   105   104    2
     6   112   109    1
     7   112   113    1
     8   108   109    1
     9    95    94    2
    10   104   103    1
    11    98    97    1
    12    98   101    1
    13    89    88    2
    14   102   103    1
    15   113   114    1
    16    94    97   am
    17    94    93    1
    18    92    93    1
    19   103   106    1
    20    88    87    1
    21    93    96    1
    22    81    80    2
    23   114   116   ar
    24   114   115   ar
    25   106   107    1
    26    86    87    1
    27    87    90    1
    28    80    79    1
    29    91    90    1
    30    78    79    1
    31    16    15    2
    32    79    82    1
    33    22    21    1
    34    22    23    2
    35    20    21    1
    36    24    21    1
    37    24    25    1
    38    15    14    1
    39    13    14    1
    40    26    25   ar
    41    26    28   ar
    42    82    83    1
    43    25    27   ar
    44    14    17    1
    45    54    53    2
    46    53    52    1
    47    52    51    1
    48    28    29   ar
    49    83    84    2
    50    83    85   am
    51    51    46   am
    52    18    17    1
    53    41    40    2
    54    17    19    1
    55    49    48    1
    56    27    29   ar
    57    46    45    1
    58    46    47    2
    59    45    48    1
    60    45    44    1
    61    40    44   am
    62    40    39    1
    63    71    70    2
    64    48    50    1
    65     1     2    1
    66    70    69    1
    67    38    39    1
    68    39    42    1
    69    42    43    1
    70     5     2    1
    71     5     6    1
    72     2     3    1
    73     7     6   ar
    74     7     9   ar
    75     6     8   ar
    76    74    76   ar
    77    74    73   ar
    78    76    77   ar
    79    69    68    1
    80    69    72    1
    81     9    11   ar
    82     8    10   ar
    83    30    31    1
    84     3     4    2
    85    73    72    1
    86    73    75   ar
    87    77    75   ar
    88    11    10   ar
    89    11    12    1
    90    36    35    2
    91    31    32    1
    92    31    34    1
    93    37    35   am
    94    35    34    1
    95    32    33    2
    96    60    61    1
    97    60    59    1
    98    61    55    1
    99    58    57    2
   100    57    56    1
   101    65    64    2
   102    55    56    1
   103    67    66    1
   104    59    56    1
   105    62    63    1
   106    66    63    1
   107    64    63    1
   108   128   126   ar
   109   128   130   ar
   110   125   126   ar
   111   125   123   ar
   112   126   124   ar
   113   130   129   ar
   114   123   122   ar
   115   124   122   ar
   116   124   127   ar
   117   129   127   ar
   118   122   121    1
   119   117   118    1
   120   121   118    1
   121   118   119    1
   122   119   120    2
