@<TRIPOS>MOLECULE
tmp/1nopC00.pdb
 189 181 0 0 0
SMALL
GASTEIGER

@<TRIPOS>ATOM
      1  N         13.5440   55.3500    3.0660 N.3    43  TYR43      -0.1241
      2  CA        13.7390   54.4560    1.9630 C.3    43  TYR43       0.1605
      3  C         14.2150   55.2520    0.7580 C.2    43  TYR43       0.2264
      4  O         15.3400   55.0410    0.3090 O.2    43  TYR43      -0.2867
      5  CB        12.4320   53.7250    1.6840 C.3    43  TYR43       0.0534
      6  CG        12.4460   52.8060    0.5010 C.ar   43  TYR43      -0.0201
      7  CD1       13.5700   52.0170    0.2010 C.ar   43  TYR43      -0.0009
      8  CD2       11.3230   52.6950   -0.3100 C.ar   43  TYR43      -0.0009
      9  CE1       13.5550   51.1450   -0.8850 C.ar   43  TYR43       0.0417
     10  CE2       11.3040   51.8460   -1.3730 C.ar   43  TYR43       0.0417
     11  CZ        12.4110   51.0790   -1.6670 C.ar   43  TYR43       0.1957
     12  OH        12.3640   50.2410   -2.7480 O.3    43  TYR43      -0.2866
     13  N         17.9320   38.9650    1.2870 N.3    97  ALA97      -0.1231
     14  CA        17.5150   39.4180   -0.0380 C.3    97  ALA97       0.1694
     15  C         16.0580   39.8540   -0.0340 C.2    97  ALA97       0.2592
     16  O         15.2670   39.3630    0.7730 O.2    97  ALA97      -0.2718
     17  CB        17.7580   38.3350   -1.1000 C.3    97  ALA97       0.0304
     18  N         15.7340   40.7890   -0.9330 N.am   98  PHE98      -0.1962
     19  CA        14.4150   41.4310   -1.0090 C.3    98  PHE98       0.1771
     20  C         14.0390   42.2370    0.2500 C.2    98  PHE98       0.2620
     21  O         12.8580   42.4620    0.5250 O.2    98  PHE98      -0.2715
     22  CB        13.3230   40.4130   -1.3710 C.3    98  PHE98       0.0574
     23  CG        13.3290   40.0170   -2.8200 C.ar   98  PHE98      -0.0200
     24  CD1       12.3380   40.4660   -3.6790 C.ar   98  PHE98      -0.0042
     25  CD2       14.3360   39.1980   -3.3290 C.ar   98  PHE98      -0.0042
     26  CE1       12.3430   40.1060   -5.0340 C.ar   98  PHE98      -0.0003
     27  CE2       14.3610   38.8420   -4.6770 C.ar   98  PHE98      -0.0003
     28  CZ        13.3590   39.2900   -5.5320 C.ar   98  PHE98      -0.0000
     29  N         15.0510   42.6660    0.9990 N.am   99  GLY99      -0.1940
     30  CA        14.8490   43.5460    2.1320 C.3    99  GLY99       0.2014
     31  C         15.0750   44.9920    1.7310 C.2    99  GLY99       0.2639
     32  O         15.8460   45.2890    0.8100 O.2    99  GLY99      -0.2714
     33  N         14.3950   45.9040    2.4190 N.am  100  THR100     -0.1950
     34  CA        14.5580   47.3210    2.1640 C.3   100  THR100      0.1897
     35  C         14.7380   48.0020    3.5040 C.2   100  THR100      0.2313
     36  O         14.3170   47.4700    4.5400 O.2   100  THR100     -0.2863
     37  CB        13.3290   47.9230    1.4090 C.3   100  THR100      0.1794
     38  OG1       12.1230   47.6220    2.1150 O.3   100  THR100     -0.2208
     39  CG2       13.0970   47.2390    0.0690 C.3   100  THR100      0.0378
     40  N         13.0570   50.4350    5.1980 N.3   102  HIS102     -0.1241
     41  CA        11.7530   51.0610    4.9380 C.3   102  HIS102      0.1621
     42  C         11.2860   52.0380    6.0100 C.2   102  HIS102      0.2264
     43  O         10.4000   52.8330    5.7470 O.2   102  HIS102     -0.2867
     44  CB        10.6760   50.0120    4.6460 C.3   102  HIS102      0.0745
     45  CG         9.4800   50.5620    3.9330 C.ar  102  HIS102      0.0817
     46  ND1        8.2290   50.6370    4.5180 N.ar  102  HIS102     -0.2268
     47  CD2        9.3450   51.0910    2.6920 C.ar  102  HIS102      0.1154
     48  CE1        7.3800   51.1980    3.6760 C.ar  102  HIS102      0.1986
     49  NE2        8.0320   51.4890    2.5640 N.ar  102  HIS102     -0.2212
     50  N          8.1590   58.8810    2.3810 N.3   122  ASN122     -0.1240
     51  CA         9.4860   59.0380    1.7750 C.3   122  ASN122      0.1653
     52  C          9.8780   60.5280    1.7690 C.2   122  ASN122      0.2266
     53  O          8.9930   61.3930    1.7890 O.2   122  ASN122     -0.2867
     54  CB         9.4830   58.4790    0.3460 C.3   122  ASN122      0.1155
     55  CG         9.3520   56.9620    0.3200 C.2   122  ASN122      0.2627
     56  OD1       10.3430   56.2380    0.5190 O.2   122  ASN122     -0.2716
     57  ND2        8.1320   56.4700    0.1210 N.am  122  ASN122     -0.0877
     58  N          1.4260   48.6490   -0.0700 N.3   235  SER235     -0.1202
     59  CA         2.1400   47.6530   -0.8420 C.3   235  SER235      0.2020
     60  C          1.8120   46.2610   -0.3140 C.2   235  SER235      0.2619
     61  O          1.5350   46.0870    0.8850 O.2   235  SER235     -0.2717
     62  CB         3.6270   47.9640   -0.7750 C.3   235  SER235      0.2103
     63  OG         4.4050   46.9250   -1.2940 O.3   235  SER235     -0.2182
     64  N          1.8580   45.2680   -1.2020 N.am  236  VAL236     -0.1965
     65  CA         1.3230   43.9460   -0.9270 C.3   236  VAL236      0.1727
     66  C          2.3440   42.8930   -1.2810 C.2   236  VAL236      0.2617
     67  O          2.6720   42.7150   -2.4460 O.2   236  VAL236     -0.2715
     68  CB         0.0620   43.6720   -1.7640 C.3   236  VAL236      0.0290
     69  CG1       -0.6830   42.3930   -1.2630 C.3   236  VAL236      0.0023
     70  CG2       -0.8610   44.8800   -1.8070 C.3   236  VAL236      0.0023
     71  N          2.8650   42.2060   -0.2660 N.am  237  GLY237     -0.1940
     72  CA         3.8350   41.1420   -0.4810 C.3   237  GLY237      0.2014
     73  C          3.1800   39.9140   -1.0950 C.2   237  GLY237      0.2639
     74  O          1.9480   39.8840   -1.2730 O.2   237  GLY237     -0.2714
     75  N          3.9890   38.9140   -1.4440 N.am  238  SER238     -0.1949
     76  CA         3.4490   37.6180   -1.8870 C.3   238  SER238      0.1924
     77  C          3.0500   36.8420   -0.6360 C.2   238  SER238      0.2314
     78  O          3.9040   36.4840    0.1600 O.2   238  SER238     -0.2863
     79  CB         4.4800   36.8450   -2.7360 C.3   238  SER238      0.2116
     80  OG         4.0810   35.4890   -2.9250 O.3   238  SER238     -0.2180
     81  N          1.1980   33.8980   -0.2350 N.3   240  GLY240     -0.1225
     82  CA         1.0130   32.4570   -0.3300 C.3   240  GLY240      0.1811
     83  C         -0.2280   32.0610   -1.1110 C.2   240  GLY240      0.2280
     84  O         -1.1060   32.8910   -1.3640 O.2   240  GLY240     -0.2866
     85  N          2.8310   49.7450   -5.3040 N.3   286  PRO286     -0.2116
     86  CA         3.5260   48.7620   -6.1430 C.3   286  PRO286      0.1372
     87  C          3.0340   47.3390   -5.9200 C.2   286  PRO286      0.2244
     88  O          3.7080   46.5450   -5.2640 O.2   286  PRO286     -0.2868
     89  CB         4.9810   48.8880   -5.6940 C.3   286  PRO286      0.0268
     90  CG         4.9270   49.4430   -4.3300 C.3   286  PRO286      0.0207
     91  CD         3.5440   49.9920   -4.0450 C.3   286  PRO286      0.0892
     92  N          2.2860   44.2220   -8.0410 N.3   288  SER288     -0.1217
     93  CA         2.6240   43.7890   -9.3940 C.3   288  SER288      0.1889
     94  C          1.6580   42.6980   -9.8430 C.2   288  SER288      0.2288
     95  O          1.1320   41.9620   -9.0090 O.2   288  SER288     -0.2866
     96  CB         4.0350   43.2490   -9.4040 C.3   288  SER288      0.2089
     97  OG         3.9970   41.8800   -9.0140 O.3   288  SER288     -0.2183
     98  N         -0.8570   35.2530   -8.3880 N.3   294  LYS294     -0.1245
     99  CA        -0.5500   34.1200   -7.5040 C.3   294  LYS294      0.1561
    100  C         -1.5080   33.9910   -6.3190 C.2   294  LYS294      0.2260
    101  O         -1.5450   32.9400   -5.6740 O.2   294  LYS294     -0.2867
    102  CB         0.8480   34.2870   -6.8950 C.3   294  LYS294      0.0271
    103  CG         2.0270   33.9550   -7.7710 C.3   294  LYS294      0.0035
    104  CD         3.2260   33.6160   -6.8920 C.3   294  LYS294      0.0206
    105  CE         4.5400   33.9330   -7.5910 C.3   294  LYS294      0.1093
    106  NZ         5.1050   35.2110   -7.0510 N.3   294  LYS294     -0.1314
    107  N         -0.5410   56.5470    1.4460 N.3   318  HIS318     -0.1241
    108  CA         0.7760   55.9660    1.6360 C.3   318  HIS318      0.1621
    109  C          1.0070   55.7090    3.1490 C.2   318  HIS318      0.2264
    110  O          2.0780   55.2490    3.5690 O.2   318  HIS318     -0.2867
    111  CB         1.8680   56.8310    1.0180 C.3   318  HIS318      0.0745
    112  CG         3.2120   56.1600    0.9310 C.ar  318  HIS318      0.0817
    113  ND1        4.1560   56.2490    1.9380 N.ar  318  HIS318     -0.2268
    114  CD2        3.7790   55.4160   -0.0500 C.ar  318  HIS318      0.1154
    115  CE1        5.2390   55.5750    1.5840 C.ar  318  HIS318      0.1986
    116  NE2        5.0410   55.0740    0.3780 N.ar  318  HIS318     -0.2212
    117  N          4.0930   47.6700    5.4300 N.3   341  ASN341     -0.1240
    118  CA         3.0530   47.3090    4.4830 C.3   341  ASN341      0.1653
    119  C          2.5650   45.8640    4.7260 C.2   341  ASN341      0.2266
    120  O          3.0100   45.2080    5.6670 O.2   341  ASN341     -0.2867
    121  CB         3.5980   47.4720    3.0670 C.3   341  ASN341      0.1155
    122  CG         3.7310   48.9250    2.6550 C.2   341  ASN341      0.2627
    123  OD1        2.7400   49.6340    2.5400 O.2   341  ASN341     -0.2716
    124  ND2        4.9490   49.3720    2.4340 N.am  341  ASN341     -0.0877
    125  N          3.2340   42.7130    4.0330 N.3   343  SER343     -0.1202
    126  CA         4.2100   41.7680    3.4960 C.3   343  SER343      0.2020
    127  C          4.9110   40.9710    4.5960 C.2   343  SER343      0.2619
    128  O          5.0160   41.4340    5.7440 O.2   343  SER343     -0.2717
    129  CB         5.2310   42.5020    2.6220 C.3   343  SER343      0.2103
    130  OG         6.1380   43.2560    3.3940 O.3   343  SER343     -0.2182
    131  N          5.3950   39.7830    4.2340 N.am  344  LYS344     -0.1965
    132  CA         6.1870   38.9530    5.1340 C.3   344  LYS344      0.1728
    133  C          7.5250   39.6130    5.3480 C.2   344  LYS344      0.2616
    134  O          8.0750   39.5920    6.4590 O.2   344  LYS344     -0.2715
    135  CB         6.3920   37.5400    4.5670 C.3   344  LYS344      0.0311
    136  CG         5.2270   36.6030    4.8330 C.3   344  LYS344      0.0038
    137  CD         4.8870   35.7390    3.6240 C.3   344  LYS344      0.0206
    138  CE         5.7670   34.4950    3.5150 C.3   344  LYS344      0.1093
    139  NZ         4.9380   33.2500    3.2480 N.3   344  LYS344     -0.1314
    140  N          8.0410   40.1920    4.2690 N.am  345  ALA345     -0.1963
    141  CA         9.2810   40.9740    4.2930 C.3   345  ALA345      0.1728
    142  C          9.3220   41.9350    5.4730 C.2   345  ALA345      0.2616
    143  O         10.3400   42.0340    6.1880 O.2   345  ALA345     -0.2715
    144  CB         9.4380   41.7440    2.9680 C.3   345  ALA345      0.0334
    145  N          8.1980   42.6200    5.6690 N.am  346  ALA346     -0.1977
    146  CA         8.0450   43.6730    6.6610 C.3   346  ALA346      0.1597
    147  C          7.6600   43.1560    8.0560 C.2   346  ALA346      0.2287
    148  O          8.1600   43.6330    9.0730 O.2   346  ALA346     -0.2864
    149  CB         6.9960   44.6760    6.1720 C.3   346  ALA346      0.0319
    150  N         12.7630   40.4450    6.7000 N.3   360  ARG360     -0.1231
    151  CA        13.6660   40.9340    5.6660 C.3   360  ARG360      0.1694
    152  C         14.0550   42.4030    5.8250 C.2   360  ARG360      0.2592
    153  O         15.1490   42.7820    5.4280 O.2   360  ARG360     -0.2718
    154  CB        13.0620   40.7240    4.2740 C.3   360  ARG360      0.0321
    155  CG        13.0870   39.3070    3.7790 C.3   360  ARG360      0.0489
    156  CD        12.4340   39.1450    2.4080 C.3   360  ARG360      0.2205
    157  NE        12.0260   37.7660    2.1380 N.pl3 360  ARG360     -0.0865
    158  CZ        12.8350   36.8300    1.6570 C.cat 360  ARG360      0.5346
    159  NH1       14.1020   37.1190    1.3970 N.pl3 360  ARG360      0.1354
    160  NH2       12.3800   35.6010    1.4520 N.pl3 360  ARG360      0.1354
    161  N         13.1740   43.2320    6.3870 N.am  361  SER361     -0.1952
    162  CA        13.3750   44.6930    6.3030 C.3   361  SER361      0.1924
    163  C         13.3940   45.4230    7.6220 C.2   361  SER361      0.2314
    164  O         13.1040   44.8530    8.6730 O.2   361  SER361     -0.2863
    165  CB        12.3210   45.3480    5.4160 C.3   361  SER361      0.2116
    166  OG        12.0900   44.5880    4.2570 O.3   361  SER361     -0.2180
    167  N         11.5480   48.2570    9.6150 N.3   363  GLU363     -0.1245
    168  CA        10.2470   48.9340    9.7290 C.3   363  GLU363      0.1567
    169  C         10.0570   49.5140   11.1270 C.2   363  GLU363      0.2260
    170  O         10.6800   49.0640   12.0740 O.2   363  GLU363     -0.2867
    171  CB         9.1070   47.9520    9.4720 C.3   363  GLU363      0.0388
    172  CG         9.2260   47.1800    8.1840 C.3   363  GLU363      0.1160
    173  CD         8.7370   47.9620    6.9860 C.2   363  GLU363      0.3649
    174  OE1        8.7700   47.3840    5.8720 O.co2 363  GLU363     -0.2457
    175  OE2        8.3430   49.1480    7.1490 O.co2 363  GLU363     -0.2457
    176  N          0.1770   48.0590  -10.4570 N.3   407  TRP407     -0.1241
    177  CA         0.9680   49.1400  -11.0130 C.3   407  TRP407      0.1605
    178  C          1.6390   48.9130  -12.3620 C.2   407  TRP407      0.2264
    179  O          2.0310   49.9020  -13.0060 O.2   407  TRP407     -0.2867
    180  CB         1.9620   49.6910   -9.9730 C.3   407  TRP407      0.0550
    181  CG         3.2660   48.9500   -9.7770 C.ar  407  TRP407      0.0003
    182  CD1        3.4790   47.6030   -9.8680 C.ar  407  TRP407      0.0946
    183  CD2        4.5290   49.5260   -9.4120 C.ar  407  TRP407      0.0152
    184  NE1        4.7950   47.3130   -9.6010 N.ar  407  TRP407     -0.2442
    185  CE2        5.4610   48.4720   -9.3150 C.ar  407  TRP407      0.0810
    186  CE3        4.9660   50.8310   -9.1510 C.ar  407  TRP407      0.0012
    187  CZ2        6.8080   48.6760   -8.9690 C.ar  407  TRP407      0.0191
    188  CZ3        6.3160   51.0380   -8.8040 C.ar  407  TRP407      0.0001
    189  CH2        7.2130   49.9630   -8.7200 C.ar  407  TRP407      0.0015
@<TRIPOS>BOND
     1   179   178    2
     2   178   177    1
     3   177   176    1
     4   177   180    1
     5   180   181    1
     6   182   181   ar
     7   182   184   ar
     8    94    93    1
     9    94    95    2
    10   181   183   ar
    11   184   185   ar
    12   183   185   ar
    13   183   186   ar
    14    96    93    1
    15    96    97    1
    16    93    92    1
    17   185   187   ar
    18   186   188   ar
    19   187   189   ar
    20   188   189   ar
    21    98    99    1
    22   103   102    1
    23   103   104    1
    24   105   106    1
    25   105   104    1
    26    99   102    1
    27    99   100    1
    28   100   101    2
    29    86    87    1
    30    86    89    1
    31    86    85    1
    32    87    88    2
    33    89    90    1
    34    28    26   ar
    35    28    27   ar
    36    85    91    1
    37    26    24   ar
    38    27    25   ar
    39    90    91    1
    40    24    23   ar
    41    25    23   ar
    42    80    79    1
    43    23    22    1
    44    12    11    1
    45    79    76    1
    46    67    66    2
    47    76    75    1
    48    76    77    1
    49    70    68    1
    50    68    69    1
    51    68    65    1
    52    11    10   ar
    53    11     9   ar
    54    75    73   am
    55    10     8   ar
    56    22    19    1
    57    84    83    2
    58    63    62    1
    59    66    65    1
    60    66    71   am
    61    74    73    2
    62    64    65    1
    63    64    60   am
    64    83    82    1
    65    17    14    1
    66    73    72    1
    67    19    18    1
    68    19    20    1
    69    18    15   am
    70     9     7   ar
    71    59    62    1
    72    59    60    1
    73    59    58    1
    74    77    78    2
    75    72    71    1
    76    82    81    1
    77    60    61    2
    78     8     6   ar
    79   114   116   ar
    80   114   112   ar
    81    14    15    1
    82    14    13    1
    83    15    16    2
    84    39    37    1
    85    57    55   am
    86     7     6   ar
    87    20    21    2
    88    20    29   am
    89     4     3    2
    90    55    54    1
    91    55    56    2
    92    54    51    1
    93   116   115   ar
    94     6     5    1
    95     3     2    1
    96    32    31    2
    97   112   111    1
    98   112   113   ar
    99    29    30    1
   100   111   108    1
   101   159   158    1
   102    37    38    1
   103    37    34    1
   104   107   108    1
   105   160   158    1
   106   115   113   ar
   107   108   109    1
   108   158   157    2
   109     5     2    1
   110    31    30    1
   111    31    33   am
   112    52    51    1
   113    52    53    2
   114    51    50    1
   115     2     1    1
   116   157   156    1
   117    34    33    1
   118    34    35    1
   119   156   155    1
   120   124   122   am
   121   123   122    2
   122    49    47   ar
   123    49    48   ar
   124   129   130    1
   125   129   126    1
   126   122   121    1
   127    47    45   ar
   128   144   141    1
   129   121   118    1
   130   109   110    2
   131   139   138    1
   132   126   125    1
   133   126   127    1
   134    35    36    2
   135   138   137    1
   136   137   136    1
   137    48    46   ar
   138   155   154    1
   139    45    46   ar
   140    45    44    1
   141   131   127   am
   142   131   132    1
   143   166   165    1
   144   140   141    1
   145   140   133   am
   146   154   151    1
   147   141   142    1
   148   118   119    1
   149   118   117    1
   150   135   136    1
   151   135   132    1
   152   127   128    2
   153    44    41    1
   154   119   120    2
   155    41    40    1
   156    41    42    1
   157   132   133    1
   158   133   134    2
   159   165   162    1
   160   153   152    2
   161   142   145   am
   162   142   143    2
   163   151   152    1
   164   151   150    1
   165   145   146    1
   166    43    42    2
   167   152   161   am
   168   174   173   ar
   169   149   146    1
   170   162   161    1
   171   162   163    1
   172   146   147    1
   173   173   175   ar
   174   173   172    1
   175   163   164    2
   176   147   148    2
   177   172   171    1
   178   171   168    1
   179   167   168    1
   180   168   169    1
   181   169   170    2
