@<TRIPOS>MOLECULE
tmp/1nosA00.pdb
 206 200 0 0 0
SMALL
GASTEIGER

@<TRIPOS>ATOM
      1  N         79.9880  -20.6700   55.3080 N.3     5  LEU5       -0.1245
      2  CA        78.6590  -20.1060   55.1140 C.3     5  LEU5        0.1561
      3  C         78.0140  -20.6350   53.8390 C.2     5  LEU5        0.2260
      4  O         76.9030  -20.2490   53.4870 O.2     5  LEU5       -0.2867
      5  CB        78.7300  -18.5760   55.0820 C.3     5  LEU5        0.0270
      6  CG        79.2160  -17.9160   56.3810 C.3     5  LEU5        0.0019
      7  CD1       79.2820  -16.4090   56.2200 C.3     5  LEU5        0.0001
      8  CD2       78.2970  -18.2790   57.5380 C.3     5  LEU5        0.0001
      9  N         66.1090  -17.3630   60.3180 N.3    74  TRP74      -0.1241
     10  CA        66.1690  -15.9130   60.1370 C.3    74  TRP74       0.1605
     11  C         66.8100  -15.3260   61.3830 C.2    74  TRP74       0.2264
     12  O         67.6640  -14.4520   61.3080 O.2    74  TRP74      -0.2867
     13  CB        64.7610  -15.3250   59.9550 C.3    74  TRP74       0.0550
     14  CG        64.7410  -13.8290   59.7010 C.ar   74  TRP74       0.0003
     15  CD1       65.8190  -13.0220   59.4440 C.ar   74  TRP74       0.0946
     16  CD2       63.5850  -12.9730   59.6530 C.ar   74  TRP74       0.0152
     17  NE1       65.4080  -11.7270   59.2360 N.ar   74  TRP74      -0.2442
     18  CE2       64.0430  -11.6660   59.3580 C.ar   74  TRP74       0.0810
     19  CE3       62.2060  -13.1850   59.8220 C.ar   74  TRP74       0.0012
     20  CZ2       63.1650  -10.5680   59.2290 C.ar   74  TRP74       0.0191
     21  CZ3       61.3310  -12.0910   59.6920 C.ar   74  TRP74       0.0001
     22  CH2       61.8200  -10.8030   59.3980 C.ar   74  TRP74       0.0015
     23  N         70.4940  -15.5930   61.4140 N.3    77  ALA77      -0.1231
     24  CA        71.2210  -14.8650   60.3670 C.3    77  ALA77       0.1679
     25  C         72.0150  -13.7520   61.0500 C.2    77  ALA77       0.2434
     26  O         71.4640  -12.7100   61.3940 O.2    77  ALA77      -0.2733
     27  CB        70.2440  -14.2840   59.3470 C.3    77  ALA77       0.0304
     28  N         73.3360  -13.9420   61.1970 N.am   78  PRO78      -0.2718
     29  CA        74.2770  -13.0120   61.8370 C.3    78  PRO78       0.1535
     30  C         74.2480  -11.5530   61.3860 C.2    78  PRO78       0.2598
     31  O         74.1390  -10.6470   62.2190 O.2    78  PRO78      -0.2715
     32  CB        75.6350  -13.6530   61.5490 C.3    78  PRO78       0.0310
     33  CG        75.3050  -15.1100   61.4070 C.3    78  PRO78       0.0237
     34  CD        74.0770  -15.0390   60.5520 C.3    78  PRO78       0.0939
     35  N         74.3510  -11.3360   60.0750 N.am   79  ARG79      -0.1964
     36  CA        74.3700   -9.9910   59.4970 C.3    79  ARG79       0.1729
     37  C         73.0070   -9.3590   59.2190 C.2    79  ARG79       0.2616
     38  O         72.9390   -8.1960   58.8300 O.2    79  ARG79      -0.2715
     39  CB        75.1790   -9.9890   58.1930 C.3    79  ARG79       0.0348
     40  CG        76.6690  -10.2540   58.3400 C.3    79  ARG79       0.0492
     41  CD        77.3710   -9.0880   59.0050 C.3    79  ARG79       0.2205
     42  NE        78.7460   -8.9530   58.5330 N.pl3  79  ARG79      -0.0865
     43  CZ        79.7870   -9.6190   59.0250 C.cat  79  ARG79       0.5346
     44  NH1       79.6280  -10.4820   60.0220 N.pl3  79  ARG79       0.1354
     45  NH2       80.9940   -9.4270   58.5110 N.pl3  79  ARG79       0.1354
     46  N         71.9260  -10.1150   59.3730 N.am   80  CYS80      -0.1954
     47  CA        70.6040   -9.5570   59.1030 C.3    80  CYS80       0.1843
     48  C         70.1040   -8.6200   60.2010 C.2    80  CYS80       0.2625
     49  O         69.9100   -9.0210   61.3480 O.2    80  CYS80      -0.2714
     50  CB        69.5750  -10.6590   58.8660 C.3    80  CYS80       0.0997
     51  SG        68.0000  -10.0100   58.2540 S.3    80  CYS80      -0.0797
     52  N         69.8860   -7.3600   59.8290 N.am   81  ILE81      -0.1963
     53  CA        69.3900   -6.3440   60.7550 C.3    81  ILE81       0.1727
     54  C         67.8950   -6.5490   61.0590 C.2    81  ILE81       0.2616
     55  O         67.4360   -6.2570   62.1680 O.2    81  ILE81      -0.2715
     56  CB        69.6470   -4.9240   60.1860 C.3    81  ILE81       0.0290
     57  CG1       71.1530   -4.6550   60.1450 C.3    81  ILE81       0.0022
     58  CG2       68.9400   -3.8690   61.0110 C.3    81  ILE81       0.0023
     59  CD1       71.5310   -3.4170   59.3700 C.3    81  ILE81       0.0001
     60  N         67.1560   -7.0920   60.0900 N.am   82  GLY82      -0.1955
     61  CA        65.7360   -7.3350   60.2810 C.3    82  GLY82       0.1869
     62  C         65.3720   -8.5150   61.1570 C.2    82  GLY82       0.2309
     63  O         64.2220   -8.6400   61.5710 O.2    82  GLY82      -0.2863
     64  N         63.0410   -8.7020   64.4030 N.3    85  GLN85      -0.1245
     65  CA        61.6000   -8.9500   64.4120 C.3    85  GLN85       0.1566
     66  C         61.2410  -10.2220   63.6330 C.2    85  GLN85       0.2260
     67  O         60.2350  -10.2790   62.9250 O.2    85  GLN85      -0.2867
     68  CB        60.8300   -7.7190   63.8930 C.3    85  GLN85       0.0367
     69  CG        61.5350   -6.9000   62.8160 C.3    85  GLN85       0.0905
     70  CD        61.0050   -7.1670   61.4150 C.2    85  GLN85       0.2608
     71  OE1       59.7950   -7.2600   61.1950 O.2    85  GLN85      -0.2717
     72  NE2       61.9110   -7.2740   60.4590 N.am   85  GLN85      -0.0878
     73  N         57.0800  -13.0220   59.8210 N.3    89  LEU89      -0.1245
     74  CA        57.3840  -13.6930   58.5590 C.3    89  LEU89       0.1561
     75  C         56.2160  -14.5280   58.0640 C.2    89  LEU89       0.2260
     76  O         55.6580  -15.3420   58.8040 O.2    89  LEU89      -0.2867
     77  CB        58.6170  -14.5970   58.7040 C.3    89  LEU89       0.0270
     78  CG        59.0790  -15.3600   57.4520 C.3    89  LEU89       0.0019
     79  CD1       59.5540  -14.3720   56.3940 C.3    89  LEU89       0.0001
     80  CD2       60.1950  -16.3350   57.8000 C.3    89  LEU89       0.0001
     81  N         57.2160   -9.1890   54.8900 N.3   122  SER122     -0.1217
     82  CA        58.2370  -10.2240   54.8130 C.3   122  SER122      0.1889
     83  C         57.6500  -11.6120   54.6010 C.2   122  SER122      0.2288
     84  O         56.7690  -12.0540   55.3490 O.2   122  SER122     -0.2866
     85  CB        59.0910  -10.2110   56.0740 C.3   122  SER122      0.2089
     86  OG        59.7230   -8.9550   56.2130 O.3   122  SER122     -0.2183
     87  N         58.5810  -15.8390   52.7580 N.3   124  ILE124     -0.1245
     88  CA        59.5000  -16.8290   52.2350 C.3   124  ILE124      0.1561
     89  C         58.6640  -17.9570   51.6380 C.2   124  ILE124      0.2260
     90  O         57.6500  -18.3650   52.2080 O.2   124  ILE124     -0.2867
     91  CB        60.4570  -17.3760   53.3250 C.3   124  ILE124      0.0252
     92  CG1       61.4040  -18.4230   52.7280 C.3   124  ILE124      0.0019
     93  CG2       59.6720  -17.9660   54.4800 C.3   124  ILE124      0.0019
     94  CD1       62.4830  -18.8770   53.6840 C.3   124  ILE124      0.0001
     95  N         65.9120  -12.0380   48.2440 N.3   223  VAL223     -0.1245
     96  CA        67.0080  -12.9820   48.0070 C.3   223  VAL223      0.1561
     97  C         66.4350  -14.3050   47.5210 C.2   223  VAL223      0.2260
     98  O         65.6730  -14.9580   48.2300 O.2   223  VAL223     -0.2867
     99  CB        67.8440  -13.2060   49.2730 C.3   223  VAL223      0.0252
    100  CG1       68.9330  -14.2630   49.0300 C.3   223  VAL223      0.0019
    101  CG2       68.4700  -11.8990   49.6960 C.3   223  VAL223      0.0019
    102  N         69.4590  -18.5640   48.3100 N.3   226  MET226     -0.1245
    103  CA        69.9670  -19.2520   49.4850 C.3   226  MET226      0.1570
    104  C         69.3390  -20.6250   49.7640 C.2   226  MET226      0.2261
    105  O         68.3450  -21.0170   49.1450 O.2   226  MET226     -0.2867
    106  CB        69.9440  -18.3220   50.6950 C.3   226  MET226      0.0387
    107  CG        70.9110  -17.1550   50.5000 C.3   226  MET226      0.0595
    108  SD        71.0610  -16.1230   51.9290 S.3   226  MET226     -0.1393
    109  CE        72.2590  -17.0410   52.8590 C.3   226  MET226      0.0692
    110  N         63.1330  -15.4570   49.8130 N.3   240  PHE240     -0.1227
    111  CA        62.5840  -14.6810   50.9210 C.3   240  PHE240      0.1736
    112  C         62.8250  -13.1950   50.6950 C.2   240  PHE240      0.2595
    113  O         63.6350  -12.8110   49.8470 O.2   240  PHE240     -0.2718
    114  CB        63.1820  -15.1250   52.2650 C.3   240  PHE240      0.0547
    115  CG        64.6790  -14.9910   52.3520 C.ar  240  PHE240     -0.0202
    116  CD1       65.2700  -13.7550   52.6130 C.ar  240  PHE240     -0.0042
    117  CD2       65.4970  -16.1050   52.2060 C.ar  240  PHE240     -0.0042
    118  CE1       66.6590  -13.6320   52.7310 C.ar  240  PHE240     -0.0003
    119  CE2       66.8850  -15.9960   52.3220 C.ar  240  PHE240     -0.0003
    120  CZ        67.4680  -14.7560   52.5850 C.ar  240  PHE240     -0.0000
    121  N         62.1130  -12.3550   51.4400 N.am  241  ASN241     -0.1960
    122  CA        62.2850  -10.9180   51.3010 C.3   241  ASN241      0.1819
    123  C         62.0150  -10.1960   52.5920 C.2   241  ASN241      0.2622
    124  O         61.4200  -10.7380   53.5210 O.2   241  ASN241     -0.2715
    125  CB        61.3320  -10.3530   50.2450 C.3   241  ASN241      0.1195
    126  CG        59.8850  -10.3450   50.7130 C.2   241  ASN241      0.2630
    127  OD1       59.2040  -11.3670   50.6570 O.2   241  ASN241     -0.2716
    128  ND2       59.4220   -9.1990   51.2090 N.am  241  ASN241     -0.0877
    129  N         62.4450   -8.9450   52.6120 N.am  242  GLY242     -0.1940
    130  CA        62.2280   -8.0640   53.7380 C.3   242  GLY242      0.2014
    131  C         62.0140   -6.7430   53.0300 C.2   242  GLY242      0.2638
    132  O         61.4050   -6.7050   51.9500 O.2   242  GLY242     -0.2714
    133  N         62.4930   -5.6590   53.6240 N.am  243  TRP243     -0.1973
    134  CA        62.3940   -4.3510   52.9900 C.3   243  TRP243      0.1640
    135  C         63.7640   -3.6970   53.0810 C.2   243  TRP243      0.2290
    136  O         64.5990   -4.1130   53.8790 O.2   243  TRP243     -0.2864
    137  CB        61.2930   -3.4730   53.6080 C.3   243  TRP243      0.0576
    138  CG        61.3000   -3.3640   55.0970 C.ar  243  TRP243      0.0006
    139  CD1       62.1200   -2.5880   55.8620 C.ar  243  TRP243      0.0946
    140  CD2       60.4120   -4.0280   56.0020 C.ar  243  TRP243      0.0152
    141  NE1       61.7940   -2.7240   57.1880 N.ar  243  TRP243     -0.2442
    142  CE2       60.7470   -3.6000   57.3030 C.ar  243  TRP243      0.0810
    143  CE3       59.3610   -4.9410   55.8370 C.ar  243  TRP243      0.0012
    144  CZ2       60.0720   -4.0550   58.4410 C.ar  243  TRP243      0.0191
    145  CZ3       58.6900   -5.3950   56.9620 C.ar  243  TRP243      0.0001
    146  CH2       59.0480   -4.9480   58.2510 C.ar  243  TRP243      0.0015
    147  N         66.9070   -0.9570   53.6380 N.3   245  MET245     -0.1245
    148  CA        67.4110   -0.1820   54.7600 C.3   245  MET245      0.1570
    149  C         67.4400    1.2780   54.3140 C.2   245  MET245      0.2261
    150  O         67.2160    2.1940   55.1110 O.2   245  MET245     -0.2867
    151  CB        68.8350   -0.6160   55.1180 C.3   245  MET245      0.0387
    152  CG        68.9550   -2.0020   55.6920 C.3   245  MET245      0.0595
    153  SD        68.1740   -2.1210   57.3020 S.3   245  MET245     -0.1393
    154  CE        69.1630   -0.9560   58.2410 C.3   245  MET245      0.0692
    155  N         71.8590    0.9810   51.4470 N.3   248  GLU248     -0.1245
    156  CA        72.2650    0.0520   50.4070 C.3   248  GLU248      0.1567
    157  C         71.7840    0.0300   48.9660 C.2   248  GLU248      0.2260
    158  O         72.4640   -0.5980   48.1640 O.2   248  GLU248     -0.2867
    159  CB        72.0680   -1.3620   50.9430 C.3   248  GLU248      0.0388
    160  CG        70.6750   -1.9280   50.6670 C.3   248  GLU248      0.1160
    161  CD        69.5810   -1.2260   51.4470 C.2   248  GLU248      0.3649
    162  OE1       69.1150   -0.1390   51.0390 O.co2 248  GLU248     -0.2457
    163  OE2       69.1800   -1.7810   52.4790 O.co2 248  GLU248     -0.2457
    164  N         63.5200    0.6850   56.1060 N.3   281  MET281     -0.1245
    165  CA        63.8340    0.5690   57.5250 C.3   281  MET281      0.1570
    166  C         64.2620    1.8910   58.1810 C.2   281  MET281      0.2261
    167  O         65.4360    2.0800   58.5200 O.2   281  MET281     -0.2867
    168  CB        64.8720   -0.5350   57.7810 C.3   281  MET281      0.0387
    169  CG        65.0510   -0.9080   59.2580 C.3   281  MET281      0.0595
    170  SD        63.5950   -1.6980   60.0110 S.3   281  MET281     -0.1393
    171  CE        64.2350   -3.3310   60.4220 C.3   281  MET281      0.0692
    172  N         69.4950  -22.7600   59.4680 N.3   303  PHE303     -0.1227
    173  CA        70.3470  -21.6950   58.9580 C.3   303  PHE303      0.1736
    174  C         70.1960  -21.4680   57.4630 C.2   303  PHE303      0.2595
    175  O         69.8880  -22.3890   56.7150 O.2   303  PHE303     -0.2718
    176  CB        71.8030  -22.0710   59.2740 C.3   303  PHE303      0.0547
    177  CG        72.7650  -20.9200   59.2370 C.ar  303  PHE303     -0.0202
    178  CD1       72.8860  -20.0690   60.3250 C.ar  303  PHE303     -0.0042
    179  CD2       73.5840  -20.7210   58.1350 C.ar  303  PHE303     -0.0042
    180  CE1       73.8150  -19.0350   60.3200 C.ar  303  PHE303     -0.0003
    181  CE2       74.5160  -19.6880   58.1200 C.ar  303  PHE303     -0.0003
    182  CZ        74.6310  -18.8450   59.2150 C.ar  303  PHE303     -0.0000
    183  N         70.3900  -20.2250   57.0370 N.am  304  TYR304     -0.1976
    184  CA        70.3370  -19.8850   55.6170 C.3   304  TYR304      0.1639
    185  C         71.7790  -19.8780   55.0950 C.2   304  TYR304      0.2290
    186  O         72.6090  -19.0840   55.5420 O.2   304  TYR304     -0.2864
    187  CB        69.6700  -18.5120   55.3810 C.3   304  TYR304      0.0560
    188  CG        68.1760  -18.4990   55.6520 C.ar  304  TYR304     -0.0198
    189  CD1       67.3040  -19.3190   54.9260 C.ar  304  TYR304     -0.0009
    190  CD2       67.6420  -17.7230   56.6830 C.ar  304  TYR304     -0.0009
    191  CE1       65.9310  -19.3680   55.2310 C.ar  304  TYR304      0.0417
    192  CE2       66.2740  -17.7650   56.9890 C.ar  304  TYR304      0.0417
    193  CZ        65.4300  -18.5960   56.2690 C.ar  304  TYR304      0.1957
    194  OH        64.1000  -18.6820   56.6200 O.3   304  TYR304     -0.2866
    195  N         74.6700  -19.9640   51.7670 N.3   306  TYR306     -0.1241
    196  CA        74.9130  -19.4830   50.4140 C.3   306  TYR306      0.1605
    197  C         75.1580  -20.7520   49.5920 C.2   306  TYR306      0.2264
    198  O         75.3900  -21.8260   50.1550 O.2   306  TYR306     -0.2867
    199  CB        76.1410  -18.5700   50.3700 C.3   306  TYR306      0.0534
    200  CG        75.9210  -17.2520   51.0590 C.ar  306  TYR306     -0.0201
    201  CD1       75.2660  -16.2090   50.4100 C.ar  306  TYR306     -0.0009
    202  CD2       76.3160  -17.0630   52.3760 C.ar  306  TYR306     -0.0009
    203  CE1       75.0030  -15.0120   51.0600 C.ar  306  TYR306      0.0417
    204  CE2       76.0570  -15.8740   53.0370 C.ar  306  TYR306      0.0417
    205  CZ        75.3980  -14.8540   52.3720 C.ar  306  TYR306      0.1957
    206  OH        75.1110  -13.6800   53.0270 O.3   306  TYR306     -0.2866
@<TRIPOS>BOND
     1    97    96    1
     2    97    98    2
     3    96    95    1
     4    96    99    1
     5   158   157    2
     6   102   103    1
     7   157   156    1
     8   100    99    1
     9   105   104    2
    10    99   101    1
    11   103   104    1
    12   103   106    1
    13   197   198    2
    14   197   196    1
    15   110   111    1
    16   113   112    2
    17   125   126    1
    18   125   122    1
    19   199   196    1
    20   199   200    1
    21   156   159    1
    22   156   155    1
    23   201   200   ar
    24   201   203   ar
    25   196   195    1
    26   107   106    1
    27   107   108    1
    28   127   126    2
    29   160   159    1
    30   160   161    1
    31   112   111    1
    32   112   121   am
    33   126   128   am
    34   111   114    1
    35   162   161   ar
    36   200   202   ar
    37   203   205   ar
    38   122   121    1
    39   122   123    1
    40   161   163   ar
    41    89    90    2
    42    89    88    1
    43   108   109    1
    44   132   131    2
    45   117   119   ar
    46   117   115   ar
    47    88    87    1
    48    88    91    1
    49   114   115    1
    50   119   120   ar
    51   115   116   ar
    52   205   206    1
    53   205   204   ar
    54   202   204   ar
    55   120   118   ar
    56   123   129   am
    57   123   124    2
    58   129   130    1
    59   116   118   ar
    60    92    91    1
    61    92    94    1
    62   134   135    1
    63   134   137    1
    64   134   133    1
    65   131   133   am
    66   131   130    1
    67   135   136    2
    68    91    93    1
    69     4     3    2
    70   137   138    1
    71   147   148    1
    72     3     2    1
    73   149   148    1
    74   149   150    2
    75    83    82    1
    76    83    84    2
    77   148   151    1
    78    82    81    1
    79    82    85    1
    80   189   191   ar
    81   189   188   ar
    82     5     2    1
    83     5     6    1
    84   185   186    2
    85   185   184    1
    86   138   139   ar
    87   138   140   ar
    88     2     1    1
    89   151   152    1
    90   191   193   ar
    91   187   184    1
    92   187   188    1
    93   184   183    1
    94   188   190   ar
    95   152   153    1
    96   143   140   ar
    97   143   145   ar
    98   139   141   ar
    99   140   142   ar
   100    85    86    1
   101   164   165    1
   102     7     6    1
   103   193   194    1
   104   193   192   ar
   105     6     8    1
   106    79    78    1
   107   190   192   ar
   108   175   174    2
   109   145   146   ar
   110   183   174   am
   111   141   142   ar
   112   153   154    1
   113   142   144   ar
   114    78    80    1
   115    78    77    1
   116   174   173    1
   117   165   168    1
   118   165   166    1
   119   168   169    1
   120    75    74    1
   121    75    76    2
   122   181   179   ar
   123   181   182   ar
   124   179   177   ar
   125   166   167    2
   126    39    40    1
   127    39    36    1
   128   146   144   ar
   129    51    50    1
   130    40    41    1
   131    45    43    1
   132    42    41    1
   133    42    43    2
   134    74    77    1
   135    74    73    1
   136    38    37    2
   137    50    47    1
   138   173   176    1
   139   173   172    1
   140    43    44    1
   141    47    46    1
   142    47    48    1
   143   182   180   ar
   144    37    46   am
   145    37    36    1
   146    20    18   ar
   147    20    22   ar
   148    17    18   ar
   149    17    15   ar
   150   177   176    1
   151   177   178   ar
   152   169   170    1
   153    27    24    1
   154    18    16   ar
   155    59    57    1
   156    22    21   ar
   157    15    14   ar
   158    36    35    1
   159    16    14   ar
   160    16    19   ar
   161    21    19   ar
   162    14    13    1
   163    52    48   am
   164    52    53    1
   165    13    10    1
   166   170   171    1
   167    35    30   am
   168    60    61    1
   169    60    54   am
   170    10     9    1
   171    10    11    1
   172    57    56    1
   173    56    53    1
   174    56    58    1
   175    48    49    2
   176    61    62    1
   177   180   178   ar
   178    24    25    1
   179    24    23    1
   180    72    70   am
   181    34    28    1
   182    34    33    1
   183    53    54    1
   184    25    28   am
   185    25    26    2
   186    54    55    2
   187    62    63    2
   188    71    70    2
   189    28    29    1
   190    12    11    2
   191    30    29    1
   192    30    31    2
   193    33    32    1
   194    70    69    1
   195    32    29    1
   196    69    68    1
   197    67    66    2
   198    66    65    1
   199    68    65    1
   200    64    65    1
