@<TRIPOS>MOLECULE
tmp/1nowA01.pdb
 135 133 0 0 0
SMALL
GASTEIGER

@<TRIPOS>ATOM
      1  N         14.9610   27.0150   40.2740 N.3   143  ARG143     -0.1245
      2  CA        15.0590   25.7320   40.9710 C.3   143  ARG143      0.1563
      3  C         16.5290   25.4430   41.3000 C.2   143  ARG143      0.2260
      4  O         16.8480   24.8910   42.3510 O.2   143  ARG143     -0.2867
      5  CB        14.4040   24.6170   40.1810 C.3   143  ARG143      0.0307
      6  CG        12.8650   24.5480   40.3320 C.3   143  ARG143      0.0489
      7  CD        12.1090   25.8770   40.1620 C.3   143  ARG143      0.2205
      8  NE        10.6740   25.6800   40.2900 N.pl3 143  ARG143     -0.0865
      9  CZ         9.8320   25.2900   39.3210 C.cat 143  ARG143      0.5346
     10  NH1       10.2450   25.0500   38.0680 N.pl3 143  ARG143      0.1354
     11  NH2        8.5360   25.1400   39.6130 N.pl3 143  ARG143      0.1354
     12  N         13.2560   31.1010   32.1720 N.3   169  HIS169     -0.1241
     13  CA        12.3800   31.0060   33.3270 C.3   169  HIS169      0.1621
     14  C         13.2470   31.4170   34.5110 C.2   169  HIS169      0.2264
     15  O         13.8300   30.5920   35.2040 O.2   169  HIS169     -0.2867
     16  CB        11.7970   29.6020   33.4690 C.3   169  HIS169      0.0745
     17  CG        10.7140   29.5100   34.4950 C.ar  169  HIS169      0.0817
     18  ND1        9.3930   29.7460   34.1960 N.ar  169  HIS169     -0.2268
     19  CD2       10.7560   29.2230   35.8160 C.ar  169  HIS169      0.1154
     20  CE1        8.6640   29.5960   35.2860 C.ar  169  HIS169      0.1986
     21  NE2        9.4660   29.2640   36.2790 N.ar  169  HIS169     -0.2212
     22  N         11.1560   31.7760   40.2880 N.3   172  ASP172     -0.1239
     23  CA        10.1140   30.8130   40.6380 C.3   172  ASP172      0.1674
     24  C         10.0140   30.7850   42.1710 C.2   172  ASP172      0.2266
     25  O         10.5290   31.6920   42.8160 O.2   172  ASP172     -0.2867
     26  CB        10.3750   29.4070   40.0400 C.3   172  ASP172      0.1410
     27  CG         9.0820   28.6830   39.7100 C.2   172  ASP172      0.3668
     28  OD1        8.4760   28.1180   40.6550 O.co2 172  ASP172     -0.2456
     29  OD2        8.5490   28.6920   38.5750 O.co2 172  ASP172     -0.2456
     30  N          3.7690   30.3270   41.5670 N.3   226  HIS226     -0.1241
     31  CA         5.2230   30.2240   41.4050 C.3   226  HIS226      0.1621
     32  C          5.9700   31.4620   41.8750 C.2   226  HIS226      0.2264
     33  O          7.0310   31.7600   41.3540 O.2   226  HIS226     -0.2867
     34  CB         5.6090   29.8090   39.9620 C.3   226  HIS226      0.0745
     35  CG         5.2580   28.3900   39.6610 C.ar  226  HIS226      0.0817
     36  ND1        5.8190   27.3280   40.3350 N.ar  226  HIS226     -0.2268
     37  CD2        4.3470   27.8610   38.8200 C.ar  226  HIS226      0.1154
     38  CE1        5.2920   26.1990   39.8950 C.ar  226  HIS226      0.1986
     39  NE2        4.3950   26.4950   38.9740 N.ar  226  HIS226     -0.2212
     40  N          0.7160   29.4280   35.1130 N.3   282  ASP282     -0.1225
     41  CA         0.5250   27.9910   35.3190 C.3   282  ASP282      0.1805
     42  C          0.3060   27.6040   36.7800 C.2   282  ASP282      0.2597
     43  O          0.7410   28.3090   37.6880 O.2   282  ASP282     -0.2718
     44  CB         1.7270   27.2000   34.8020 C.3   282  ASP282      0.1424
     45  CG         2.9990   27.5560   35.5260 C.2   282  ASP282      0.3668
     46  OD1        3.3250   28.7550   35.5390 O.co2 282  ASP282     -0.2456
     47  OD2        3.7210   26.7380   36.1250 O.co2 282  ASP282     -0.2456
     48  N         -0.3870   26.4830   36.9720 N.am  283  GLU283     -0.1979
     49  CA        -0.5500   25.8090   38.2730 C.3   283  GLU283      0.1602
     50  C         -0.9150   26.6910   39.4650 C.2   283  GLU283      0.2287
     51  O         -0.3460   26.5330   40.5500 O.2   283  GLU283     -0.2864
     52  CB         0.7520   25.0350   38.6080 C.3   283  GLU283      0.0415
     53  CG         1.1650   24.0070   37.5650 C.3   283  GLU283      0.1163
     54  CD         2.5570   23.4090   37.7810 C.2   283  GLU283      0.3649
     55  OE1        3.4090   23.9800   38.5010 O.co2 283  GLU283     -0.2457
     56  OE2        2.8130   22.3500   37.1860 O.co2 283  GLU283     -0.2457
     57  N          1.0330   30.5010   29.7430 N.3   333  TRP333     -0.1241
     58  CA         0.8350   29.0380   29.7890 C.3   333  TRP333      0.1605
     59  C         -0.6610   28.7810   29.6150 C.2   333  TRP333      0.2264
     60  O         -1.4880   29.6350   29.9510 O.2   333  TRP333     -0.2867
     61  CB         1.3090   28.4130   31.1080 C.3   333  TRP333      0.0550
     62  CG         2.7630   28.5170   31.3430 C.ar  333  TRP333      0.0003
     63  CD1        3.3650   29.2260   32.3070 C.ar  333  TRP333      0.0946
     64  CD2        3.8060   27.8990   30.5900 C.ar  333  TRP333      0.0152
     65  NE1        4.7300   29.1150   32.2190 N.ar  333  TRP333     -0.2442
     66  CE2        5.0270   28.2960   31.1640 C.ar  333  TRP333      0.0810
     67  CE3        3.8350   27.0380   29.4960 C.ar  333  TRP333      0.0012
     68  CZ2        6.2480   27.8640   30.6880 C.ar  333  TRP333      0.0191
     69  CZ3        5.0470   26.6110   29.0290 C.ar  333  TRP333      0.0001
     70  CH2        6.2400   27.0230   29.6200 C.ar  333  TRP333      0.0015
     71  N          1.5180   23.2260   27.1380 N.3   352  TRP352     -0.1241
     72  CA         2.4950   22.3860   27.8320 C.3   352  TRP352      0.1605
     73  C          1.9760   21.1070   28.4790 C.2   352  TRP352      0.2264
     74  O          2.7820   20.2330   28.7870 O.2   352  TRP352     -0.2867
     75  CB         3.2070   23.2040   28.9060 C.3   352  TRP352      0.0550
     76  CG         2.4130   23.4210   30.1880 C.ar  352  TRP352      0.0003
     77  CD1        1.5270   24.4270   30.4300 C.ar  352  TRP352      0.0946
     78  CD2        2.4640   22.6390   31.3980 C.ar  352  TRP352      0.0152
     79  NE1        1.0090   24.3070   31.6970 N.ar  352  TRP352     -0.2442
     80  CE2        1.5700   23.2220   32.3150 C.ar  352  TRP352      0.0810
     81  CE3        3.1550   21.4910   31.7870 C.ar  352  TRP352      0.0012
     82  CZ2        1.3600   22.7030   33.5940 C.ar  352  TRP352      0.0191
     83  CZ3        2.9430   20.9770   33.0570 C.ar  352  TRP352      0.0001
     84  CH2        2.0520   21.5850   33.9430 C.ar  352  TRP352      0.0015
     85  N          9.1470   17.8720   27.1210 N.3   378  TYR378     -0.1241
     86  CA         9.5830   18.1880   28.4760 C.3   378  TYR378      0.1605
     87  C         10.8290   17.3370   28.7130 C.2   378  TYR378      0.2264
     88  O         10.7370   16.1810   29.1050 O.2   378  TYR378     -0.2867
     89  CB         8.4440   17.9510   29.4810 C.3   378  TYR378      0.0534
     90  CG         7.6900   19.2230   29.7860 C.ar  378  TYR378     -0.0201
     91  CD1        7.3830   20.1380   28.7850 C.ar  378  TYR378     -0.0009
     92  CD2        7.3320   19.5380   31.0830 C.ar  378  TYR378     -0.0009
     93  CE1        6.7350   21.3070   29.0630 C.ar  378  TYR378      0.0417
     94  CE2        6.6800   20.6940   31.3640 C.ar  378  TYR378      0.0417
     95  CZ         6.3850   21.5860   30.3510 C.ar  378  TYR378      0.1957
     96  OH         5.7770   22.7840   30.6520 O.3   378  TYR378     -0.2866
     97  N         13.1420   17.6420   30.9170 N.3   380  ASP380     -0.1225
     98  CA        13.3950   17.2840   32.3070 C.3   380  ASP380      0.1805
     99  C         12.8540   15.8760   32.6660 C.2   380  ASP380      0.2597
    100  O         13.3970   15.2080   33.5580 O.2   380  ASP380     -0.2718
    101  CB        12.8510   18.3620   33.2450 C.3   380  ASP380      0.1424
    102  CG        11.3470   18.5230   33.1650 C.2   380  ASP380      0.3668
    103  OD1       10.7780   18.5800   32.0330 O.co2 380  ASP380     -0.2456
    104  OD2       10.6600   18.6260   34.1990 O.co2 380  ASP380     -0.2456
    105  N         11.8240   15.4150   31.9510 N.am  381  LEU381     -0.1979
    106  CA        11.2350   14.0960   32.1640 C.3   381  LEU381      0.1596
    107  C         12.0550   13.0390   31.4180 C.2   381  LEU381      0.2287
    108  O         11.6970   12.5760   30.3300 O.2   381  LEU381     -0.2864
    109  CB         9.7610   14.0710   31.7190 C.3   381  LEU381      0.0297
    110  CG         8.8230   15.1590   32.2830 C.3   381  LEU381      0.0022
    111  CD1        7.3910   15.0200   31.7110 C.3   381  LEU381      0.0001
    112  CD2        8.7590   15.1620   33.7770 C.3   381  LEU381      0.0001
    113  N         13.0850   22.0200   32.7920 N.3   417  TRP417     -0.1241
    114  CA        12.7720   22.5040   34.1420 C.3   417  TRP417      0.1605
    115  C         13.8800   22.0720   35.0830 C.2   417  TRP417      0.2264
    116  O         14.5740   21.0740   34.8440 O.2   417  TRP417     -0.2867
    117  CB        11.4010   22.0200   34.6000 C.3   417  TRP417      0.0550
    118  CG        10.3480   22.5890   33.7270 C.ar  417  TRP417      0.0003
    119  CD1        9.7560   21.9920   32.6550 C.ar  417  TRP417      0.0946
    120  CD2        9.8400   23.9230   33.7770 C.ar  417  TRP417      0.0152
    121  NE1        8.8770   22.8660   32.0620 N.ar  417  TRP417     -0.2442
    122  CE2        8.9030   24.0560   32.7340 C.ar  417  TRP417      0.0810
    123  CE3       10.0470   25.0100   34.6290 C.ar  417  TRP417      0.0012
    124  CZ2        8.1730   25.2260   32.5240 C.ar  417  TRP417      0.0191
    125  CZ3        9.3200   26.1740   34.4270 C.ar  417  TRP417      0.0001
    126  CH2        8.3990   26.2780   33.3850 C.ar  417  TRP417      0.0015
    127  N         14.1610   21.3710   38.6440 N.3   419  GLU419     -0.1245
    128  CA        14.1150   20.6730   39.9370 C.3   419  GLU419      0.1567
    129  C         15.3090   19.7560   40.1490 C.2   419  GLU419      0.2260
    130  O         15.8600   19.7130   41.2450 O.2   419  GLU419     -0.2867
    131  CB        12.8430   19.8300   40.0820 C.3   419  GLU419      0.0388
    132  CG        11.5700   20.6120   40.3890 C.3   419  GLU419      0.1160
    133  CD        10.9110   21.2580   39.1770 C.2   419  GLU419      0.3649
    134  OE1       11.3670   21.0830   38.0290 O.co2 419  GLU419     -0.2457
    135  OE2        9.9130   21.9610   39.3780 O.co2 419  GLU419     -0.2457
@<TRIPOS>BOND
     1    85    86    1
     2    71    72    1
     3    72    73    1
     4    72    75    1
     5    86    87    1
     6    86    89    1
     7    73    74    2
     8    87    88    2
     9    91    93   ar
    10    91    90   ar
    11    75    76    1
    12    69    67   ar
    13    69    70   ar
    14    93    95   ar
    15    89    90    1
    16    67    64   ar
    17    59    58    1
    18    59    60    2
    19    70    68   ar
    20    57    58    1
    21    90    92   ar
    22    58    61    1
    23    76    77   ar
    24    76    78   ar
    25   108   107    2
    26    95    96    1
    27    95    94   ar
    28    77    79   ar
    29    64    66   ar
    30    64    62   ar
    31    68    66   ar
    32    97    98    1
    33    92    94   ar
    34    61    62    1
    35    66    65   ar
    36    62    63   ar
    37    78    81   ar
    38    78    80   ar
    39   107   106    1
    40    79    80   ar
    41   111   110    1
    42   109   106    1
    43   109   110    1
    44    81    83   ar
    45   105   106    1
    46   105    99   am
    47   103   102   ar
    48   121   119   ar
    49   121   122   ar
    50    12    13    1
    51    65    63   ar
    52   110   112    1
    53    98    99    1
    54    98   101    1
    55    80    82   ar
    56   124   122   ar
    57   124   126   ar
    58   119   118   ar
    59    99   100    2
    60   122   120   ar
    61   113   114    1
    62    83    84   ar
    63   102   101    1
    64   102   104   ar
    65    13    16    1
    66    13    14    1
    67   126   125   ar
    68    16    17    1
    69    82    84   ar
    70   118   120   ar
    71   118   117    1
    72   120   123   ar
    73   114   117    1
    74   114   115    1
    75    18    17   ar
    76    18    20   ar
    77   125   123   ar
    78    17    19   ar
    79    14    15    2
    80    44    41    1
    81    44    45    1
    82   116   115    2
    83    40    41    1
    84    20    21   ar
    85    41    42    1
    86    45    46   ar
    87    45    47   ar
    88    19    21   ar
    89    42    48   am
    90    42    43    2
    91    48    49    1
    92    56    54   ar
    93    53    54    1
    94    53    52    1
    95    54    55   ar
    96   134   133   ar
    97    10     9    1
    98    49    52    1
    99    49    50    1
   100    29    27   ar
   101   127   128    1
   102    37    39   ar
   103    37    35   ar
   104    39    38   ar
   105   133   135   ar
   106   133   132    1
   107     9    11    1
   108     9     8    2
   109    50    51    2
   110    35    34    1
   111    35    36   ar
   112    27    26    1
   113    27    28   ar
   114    38    36   ar
   115   128   131    1
   116   128   129    1
   117    34    31    1
   118    26    23    1
   119   131   132    1
   120   129   130    2
   121     7     8    1
   122     7     6    1
   123     5     6    1
   124     5     2    1
   125     1     2    1
   126    22    23    1
   127    23    24    1
   128     2     3    1
   129     3     4    2
   130    33    32    2
   131    31    30    1
   132    31    32    1
   133    24    25    2
