@<TRIPOS>MOLECULE
tmp/1noxA00.pdb
 161 154 0 0 0
SMALL
GASTEIGER

@<TRIPOS>ATOM
      1  N         10.5210   27.7360   28.8840 N.3    12  ARG12      -0.1231
      2  CA        10.9800   28.7350   29.8620 C.3    12  ARG12       0.1694
      3  C         12.1060   28.2500   30.7600 C.2    12  ARG12       0.2592
      4  O         12.0390   27.1650   31.3660 O.2    12  ARG12      -0.2718
      5  CB         9.8150   29.1270   30.8150 C.3    12  ARG12       0.0321
      6  CG        10.2070   30.3240   31.7360 C.3    12  ARG12       0.0489
      7  CD         9.0800   30.6400   32.7410 C.3    12  ARG12       0.2205
      8  NE         9.6870   31.6850   33.6410 N.pl3  12  ARG12      -0.0865
      9  CZ        10.6020   31.4400   34.5650 C.cat  12  ARG12       0.5346
     10  NH1       10.9370   30.1970   34.9760 N.pl3  12  ARG12       0.1354
     11  NH2       11.1990   32.4790   35.2040 N.pl3  12  ARG12       0.1354
     12  N         13.1130   29.1120   30.9340 N.am   13  ARG13      -0.1966
     13  CA        14.1200   28.9990   31.9610 C.3    13  ARG13       0.1729
     14  C         14.2060   30.3930   32.6450 C.2    13  ARG13       0.2616
     15  O         13.9740   31.3930   31.9260 O.2    13  ARG13      -0.2715
     16  CB        15.5450   28.6360   31.4620 C.3    13  ARG13       0.0348
     17  CG        15.5080   27.3960   30.5360 C.3    13  ARG13       0.0492
     18  CD        16.9700   27.1640   30.0420 C.3    13  ARG13       0.2205
     19  NE        16.9270   25.8990   29.2720 N.pl3  13  ARG13      -0.0865
     20  CZ        18.0360   25.3990   28.7210 C.cat  13  ARG13       0.5346
     21  NH1       19.2040   25.9920   28.8400 N.pl3  13  ARG13       0.1354
     22  NH2       17.9060   24.2690   28.0430 N.pl3  13  ARG13       0.1354
     23  N         14.5910   30.4830   33.9090 N.am   14  SER14      -0.1950
     24  CA        14.8000   31.8160   34.5330 C.3    14  SER14       0.1924
     25  C         16.0590   32.4650   33.9480 C.2    14  SER14       0.2314
     26  O         17.0690   31.7710   33.6600 O.2    14  SER14      -0.2863
     27  CB        14.9250   31.6700   36.0440 C.3    14  SER14       0.2116
     28  OG        13.6600   31.4090   36.6520 O.3    14  SER14      -0.2180
     29  N         18.8260   35.7600   34.3110 N.3    16  ARG16      -0.1245
     30  CA        19.3870   36.6400   35.3350 C.3    16  ARG16       0.1563
     31  C         20.3690   37.6410   34.7410 C.2    16  ARG16       0.2260
     32  O         21.0360   38.3700   35.4840 O.2    16  ARG16      -0.2867
     33  CB        20.0650   35.8070   36.4610 C.3    16  ARG16       0.0307
     34  CG        18.9930   35.0550   37.2960 C.3    16  ARG16       0.0489
     35  CD        19.7050   34.0540   38.2260 C.3    16  ARG16       0.2205
     36  NE        18.7320   33.2670   39.0290 N.pl3  16  ARG16      -0.0865
     37  CZ        18.2610   32.0980   38.5650 C.cat  16  ARG16       0.5346
     38  NH1       18.6180   31.5460   37.4000 N.pl3  16  ARG16       0.1354
     39  NH2       17.3610   31.4130   39.2930 N.pl3  16  ARG16       0.1354
     40  N         21.4170   40.4720   45.2580 N.3    68  GLN68      -0.1245
     41  CA        21.2510   39.8040   43.9570 C.3    68  GLN68       0.1566
     42  C         21.3820   40.8220   42.8480 C.2    68  GLN68       0.2260
     43  O         20.5480   41.7400   42.7380 O.2    68  GLN68      -0.2867
     44  CB        19.8720   39.1070   43.9810 C.3    68  GLN68       0.0367
     45  CG        19.8580   37.8710   44.8650 C.3    68  GLN68       0.0905
     46  CD        18.5360   37.1080   44.8260 C.2    68  GLN68       0.2608
     47  OE1       18.2810   36.4170   43.8310 O.2    68  GLN68      -0.2717
     48  NE2       17.6740   37.2170   45.8240 N.am   68  GLN68      -0.0878
     49  N         20.8290   40.9180   39.5890 N.3    70  HIS70      -0.1241
     50  CA        19.8070   41.1110   38.5670 C.3    70  HIS70       0.1621
     51  C         18.7240   42.0930   38.9860 C.2    70  HIS70       0.2264
     52  O         17.9920   42.5550   38.0970 O.2    70  HIS70      -0.2867
     53  CB        19.1920   39.7620   38.1630 C.3    70  HIS70       0.0745
     54  CG        19.0230   38.7930   39.2820 C.ar   70  HIS70       0.0817
     55  ND1       19.9970   37.9440   39.7580 N.ar   70  HIS70      -0.2268
     56  CD2       17.8840   38.5820   40.0180 C.ar   70  HIS70       0.1154
     57  CE1       19.4590   37.2260   40.7480 C.ar   70  HIS70       0.1986
     58  NE2       18.2140   37.6160   40.9210 N.ar   70  HIS70      -0.2212
     59  N         -0.1150   33.7480   43.9900 N.3   132  TYR132     -0.1298
     60  CA         0.7590   32.8690   43.2010 C.3   132  TYR132      0.1290
     61  C          0.0080   32.3230   41.9870 C.3   132  TYR132      0.2013
     62  O          0.7440   31.9750   41.0220 O.3   132  TYR132     -0.2188
     63  CB         1.3060   31.7460   44.1260 C.3   132  TYR132      0.0480
     64  CG         2.4870   32.1620   45.0040 C.ar  132  TYR132     -0.0204
     65  CD1        3.6420   32.6600   44.4380 C.ar  132  TYR132     -0.0009
     66  CD2        2.3690   32.0530   46.3910 C.ar  132  TYR132     -0.0009
     67  CE1        4.7210   33.0620   45.2260 C.ar  132  TYR132      0.0417
     68  CE2        3.4500   32.4630   47.1620 C.ar  132  TYR132      0.0417
     69  CZ         4.5880   32.9380   46.5930 C.ar  132  TYR132      0.1957
     70  OH         5.6290   33.3370   47.4440 O.3   132  TYR132     -0.2866
     71  N          0.9770   34.8640   39.6310 N.3   135  LEU135     -0.1245
     72  CA         2.4030   34.7040   39.2740 C.3   135  LEU135      0.1561
     73  C          2.5680   33.6500   38.1790 C.2   135  LEU135      0.2260
     74  O          3.3240   33.8530   37.2190 O.2   135  LEU135     -0.2867
     75  CB         3.2630   34.4170   40.5040 C.3   135  LEU135      0.0270
     76  CG         4.7560   34.3120   40.1310 C.3   135  LEU135      0.0019
     77  CD1        5.2630   35.7100   39.7790 C.3   135  LEU135      0.0001
     78  CD2        5.5290   33.8410   41.3750 C.3   135  LEU135      0.0001
     79  N          4.3160   34.4800   34.6130 N.3   139  LEU139     -0.1245
     80  CA         5.5800   33.9430   34.0810 C.3   139  LEU139      0.1561
     81  C          5.3700   33.3120   32.7040 C.2   139  LEU139      0.2260
     82  O          6.2910   33.3770   31.8370 O.2   139  LEU139     -0.2867
     83  CB         6.0710   32.8760   35.1150 C.3   139  LEU139      0.0270
     84  CG         6.5130   33.5430   36.4340 C.3   139  LEU139      0.0019
     85  CD1        6.8540   32.4640   37.4620 C.3   139  LEU139      0.0001
     86  CD2        7.6660   34.5390   36.2770 C.3   139  LEU139      0.0001
     87  N         13.0430   36.4250   36.3280 N.3   150  VAL150     -0.1231
     88  CA        13.3900   35.5870   37.4730 C.3   150  VAL150      0.1678
     89  C         12.5060   35.9910   38.6280 C.2   150  VAL150      0.2434
     90  O         12.5640   37.1330   39.1320 O.2   150  VAL150     -0.2733
     91  CB        14.8840   35.6090   37.7930 C.3   150  VAL150      0.0265
     92  CG1       15.4170   37.0120   38.1680 C.3   150  VAL150      0.0020
     93  CG2       15.1410   34.6660   38.9840 C.3   150  VAL150      0.0020
     94  N         11.6590   35.0950   39.1590 N.am  151  PRO151     -0.2718
     95  CA        10.9240   35.3790   40.3830 C.3   151  PRO151      0.1535
     96  C         11.7990   35.0990   41.6130 C.2   151  PRO151      0.2598
     97  O         12.6970   34.2830   41.5390 O.2   151  PRO151     -0.2715
     98  CB         9.7950   34.3520   40.3600 C.3   151  PRO151      0.0310
     99  CG        10.3800   33.2050   39.5370 C.3   151  PRO151      0.0237
    100  CD        11.4180   33.7370   38.5800 C.3   151  PRO151      0.0939
    101  N         11.5610   35.9220   42.6570 N.am  152  MET152     -0.1964
    102  CA        12.4340   35.8540   43.8480 C.3   152  MET152      0.1736
    103  C         11.6730   35.8740   45.1610 C.2   152  MET152      0.2616
    104  O         10.7200   36.6350   45.3560 O.2   152  MET152     -0.2715
    105  CB        13.3320   37.1400   43.8780 C.3   152  MET152      0.0427
    106  CG        14.3280   37.0960   42.7050 C.3   152  MET152      0.0599
    107  SD        15.1660   38.7060   42.5820 S.3   152  MET152     -0.1393
    108  CE        14.0200   39.6060   41.5400 C.3   152  MET152      0.0692
    109  N         12.1490   35.0710   46.1190 N.am  153  LEU153     -0.1963
    110  CA        11.7360   35.1110   47.5140 C.3   153  LEU153      0.1728
    111  C         12.9560   35.4200   48.4000 C.2   153  LEU153      0.2616
    112  O         12.7360   35.6230   49.6190 O.2   153  LEU153     -0.2715
    113  CB        11.1330   33.7740   48.0010 C.3   153  LEU153      0.0311
    114  CG         9.6140   33.7020   47.8530 C.3   153  LEU153      0.0022
    115  CD1        9.1200   32.2950   48.1230 C.3   153  LEU153      0.0001
    116  CD2        8.9370   34.6730   48.8450 C.3   153  LEU153      0.0001
    117  N         14.1210   35.5470   47.8170 N.am  154  GLY154     -0.1955
    118  CA        15.3180   35.8190   48.6610 C.3   154  GLY154      0.1869
    119  C         15.4630   37.3040   48.9590 C.2   154  GLY154      0.2309
    120  O         16.3020   37.9630   48.3290 O.2   154  GLY154     -0.2863
    121  N          4.5560   38.1320   48.1430 N.2   173  PRO173     -0.2571
    122  CA         4.8220   36.8150   47.6070 C.3   173  PRO173      0.2026
    123  C          5.9860   36.7120   46.6510 C.2   173  PRO173      0.2683
    124  O          6.6170   35.6400   46.5390 O.2   173  PRO173     -0.2709
    125  CB         3.5310   36.4260   46.8720 C.2   173  PRO173      0.0085
    126  CG         2.5050   37.4160   47.2350 C.2   173  PRO173      0.0180
    127  CD         3.1330   38.5840   47.9740 C.2   173  PRO173      0.0938
    128  N          6.3470   37.8110   45.9200 N.am  174  ALA174     -0.1973
    129  CA         7.5280   37.7250   45.0980 C.3   174  ALA174      0.1597
    130  C          7.9870   39.0850   44.5820 C.2   174  ALA174      0.2287
    131  O          7.1720   39.9920   44.4160 O.2   174  ALA174     -0.2864
    132  CB         7.1850   36.9670   43.7470 C.3   174  ALA174      0.0319
    133  N         20.1330   28.4010   32.6330 N.3   186  TYR186     -0.1241
    134  CA        20.6330   27.0530   32.9370 C.3   186  TYR186      0.1605
    135  C         19.5700   25.9920   32.7630 C.2   186  TYR186      0.2264
    136  O         18.4040   26.2640   33.0220 O.2   186  TYR186     -0.2867
    137  CB        21.1010   27.0970   34.4070 C.3   186  TYR186      0.0534
    138  CG        22.1080   28.2140   34.6090 C.ar  186  TYR186     -0.0201
    139  CD1       23.1180   28.4160   33.6700 C.ar  186  TYR186     -0.0009
    140  CD2       22.0140   29.0820   35.6830 C.ar  186  TYR186     -0.0009
    141  CE1       24.0270   29.4490   33.8190 C.ar  186  TYR186      0.0417
    142  CE2       22.9350   30.1080   35.8410 C.ar  186  TYR186      0.0417
    143  CZ        23.9310   30.2820   34.9100 C.ar  186  TYR186      0.1957
    144  OH        24.8460   31.3050   35.0490 O.3   186  TYR186     -0.2866
    145  N         17.2870   23.0070   33.7610 N.3   188  SER188     -0.1217
    146  CA        16.9010   22.4830   35.0580 C.3   188  SER188      0.1889
    147  C         15.8800   21.3400   34.7850 C.2   188  SER188      0.2288
    148  O         15.3050   21.2670   33.7240 O.2   188  SER188     -0.2866
    149  CB        16.2830   23.4180   36.0850 C.3   188  SER188      0.2089
    150  OG        15.1690   24.0470   35.5160 O.3   188  SER188     -0.2183
    151  N         12.8640   18.5010   36.1570 N.3   190  ARG190     -0.1245
    152  CA        11.6540   18.3720   36.9800 C.3   190  ARG190      0.1563
    153  C         11.5040   16.8840   37.3400 C.2   190  ARG190      0.2260
    154  O         12.0740   16.0270   36.6310 O.2   190  ARG190     -0.2867
    155  CB        10.3940   18.8960   36.2900 C.3   190  ARG190      0.0307
    156  CG        10.4380   20.4060   35.9380 C.3   190  ARG190      0.0489
    157  CD        10.3360   21.2620   37.2410 C.3   190  ARG190      0.2205
    158  NE        10.1970   22.7060   36.7850 N.pl3 190  ARG190     -0.0865
    159  CZ        11.2770   23.4000   36.4590 C.cat 190  ARG190      0.5346
    160  NH1       12.5490   23.0000   36.4860 N.pl3 190  ARG190      0.1354
    161  NH2       11.0350   24.6570   35.9990 N.pl3 190  ARG190      0.1354
@<TRIPOS>BOND
     1    22    20    1
     2    20    21    1
     3    20    19    2
     4     1     2    1
     5    19    18    1
     6     2     3    1
     7     2     5    1
     8    18    17    1
     9    17    16    1
    10     3    12   am
    11     3     4    2
    12     5     6    1
    13    12    13    1
    14    16    13    1
    15     6     7    1
    16    82    81    2
    17    15    14    2
    18    13    14    1
    19   133   134    1
    20    14    23   am
    21    81    80    1
    22     7     8    1
    23   135   134    1
    24   135   136    2
    25   134   137    1
    26     8     9    2
    27    26    25    2
    28   139   141   ar
    29   139   138   ar
    30   148   147    2
    31   145   146    1
    32   141   143   ar
    33    23    24    1
    34    25    24    1
    35    80    79    1
    36    80    83    1
    37    29    30    1
    38   137   138    1
    39    24    27    1
    40     9    10    1
    41     9    11    1
    42   138   140   ar
    43    31    30    1
    44    31    32    2
    45   147   146    1
    46   143   144    1
    47   143   142   ar
    48   146   149    1
    49    83    84    1
    50    30    33    1
    51   150   149    1
    52   140   142   ar
    53   156   155    1
    54   156   157    1
    55   161   159    1
    56    27    28    1
    57   151   152    1
    58    86    84    1
    59   155   152    1
    60    87    88    1
    61    84    85    1
    62   159   160    1
    63   159   158    2
    64    33    34    1
    65   154   153    2
    66   158   157    1
    67   152   153    1
    68    74    73    2
    69    34    35    1
    70    38    37    1
    71    88    91    1
    72    88    89    1
    73    91    92    1
    74    91    93    1
    75    52    51    2
    76    53    50    1
    77    53    54    1
    78    73    72    1
    79    35    36    1
    80    37    36    2
    81    37    39    1
    82    50    51    1
    83    50    49    1
    84   100    94    1
    85   100    99    1
    86    89    90    2
    87    89    94   am
    88    94    95    1
    89    72    71    1
    90    72    75    1
    91    54    55   ar
    92    54    56   ar
    93    99    98    1
    94    55    57   ar
    95    77    76    1
    96    56    58   ar
    97    76    75    1
    98    76    78    1
    99    98    95    1
   100    95    96    1
   101    57    58   ar
   102    62    61    1
   103    97    96    2
   104   108   107    1
   105    96   101   am
   106    61    60    1
   107   107   106    1
   108   101   102    1
   109   106   105    1
   110    43    42    2
   111    42    41    1
   112    60    59    1
   113    60    63    1
   114   132   129    1
   115    47    46    2
   116   102   105    1
   117   102   103    1
   118    41    44    1
   119    41    40    1
   120    44    45    1
   121    63    64    1
   122   131   130    2
   123    65    64   ar
   124    65    67   ar
   125   130   129    1
   126    46    45    1
   127    46    48   am
   128    64    66   ar
   129   129   128    1
   130   103   104    2
   131   103   109   am
   132    67    69   ar
   133   128   123   am
   134   109   110    1
   135    66    68   ar
   136   124   123    2
   137    69    68   ar
   138    69    70    1
   139   123   122    1
   140   125   126    2
   141   125   122    1
   142   126   127    1
   143   110   113    1
   144   110   111    1
   145   122   121    1
   146   117   111   am
   147   117   118    1
   148   114   113    1
   149   114   115    1
   150   114   116    1
   151   127   121    2
   152   120   119    2
   153   111   112    2
   154   118   119    1
