@<TRIPOS>MOLECULE
tmp/1npaB00.pdb
 105 98 0 0 0
SMALL
GASTEIGER

@<TRIPOS>ATOM
      1  N          9.3710   35.2280   -1.9640 N.3     8  ARG8       -0.1245
      2  CA        10.0300   33.9340   -2.0820 C.3     8  ARG8        0.1563
      3  C         10.9880   33.8870   -3.2320 C.2     8  ARG8        0.2260
      4  O         10.6740   34.3260   -4.3360 O.2     8  ARG8       -0.2867
      5  CB         9.0190   32.7950   -2.2330 C.3     8  ARG8        0.0307
      6  CG         8.3940   32.3690   -0.9200 C.3     8  ARG8        0.0489
      7  CD         7.7420   30.9990   -0.9860 C.3     8  ARG8        0.2205
      8  NE         7.0080   30.6820    0.2410 N.pl3   8  ARG8       -0.0865
      9  CZ         6.1960   29.6400    0.3570 C.cat   8  ARG8        0.5346
     10  NH1        5.5460   29.4060    1.4880 N.pl3   8  ARG8        0.1354
     11  NH2        6.0490   28.8140   -0.6680 N.pl3   8  ARG8        0.1354
     12  N         12.2330   26.6670   -5.4250 N.3    23  LEU23      -0.1245
     13  CA        12.6010   27.6420   -4.4180 C.3    23  LEU23       0.1561
     14  C         14.0820   27.5150   -4.0400 C.2    23  LEU23       0.2260
     15  O         14.5610   26.4000   -3.7690 O.2    23  LEU23      -0.2867
     16  CB        11.7390   27.3800   -3.1900 C.3    23  LEU23       0.0270
     17  CG        11.7850   28.3170   -2.0020 C.3    23  LEU23       0.0019
     18  CD1       11.1440   29.6380   -2.3910 C.3    23  LEU23       0.0001
     19  CD2       10.9750   27.6710   -0.8950 C.3    23  LEU23       0.0001
     20  N         16.7050   27.3980   -1.5960 N.3    25  ASP25      -0.1239
     21  CA        16.6900   27.0830   -0.1790 C.3    25  ASP25       0.1674
     22  C         18.0610   26.8600    0.4690 C.2    25  ASP25       0.2266
     23  O         18.5770   25.7410    0.4530 O.2    25  ASP25      -0.2867
     24  CB        15.8500   25.8030   -0.0410 C.3    25  ASP25       0.1410
     25  CG        15.1950   25.6520    1.3000 C.2    25  ASP25       0.3668
     26  OD1       13.9570   25.6720    1.3410 O.co2  25  ASP25      -0.2456
     27  OD2       15.9000   25.4830    2.3060 O.co2  25  ASP25      -0.2456
     28  N         18.7160   26.5730    3.5520 N.3    27  GLY27      -0.1210
     29  CA        18.6080   25.7530    4.7450 C.3    27  GLY27       0.1956
     30  C         18.5360   24.2830    4.4010 C.2    27  GLY27       0.2612
     31  O         18.5540   23.4280    5.2970 O.2    27  GLY27      -0.2717
     32  N         18.4300   23.9830    3.1060 N.am   28  ALA28      -0.1965
     33  CA        18.3490   22.6020    2.6590 C.3    28  ALA28       0.1728
     34  C         19.6910   22.1640    2.1510 C.2    28  ALA28       0.2616
     35  O         20.2750   22.8260    1.2930 O.2    28  ALA28      -0.2715
     36  CB        17.2880   22.4320    1.5670 C.3    28  ALA28       0.0334
     37  N         20.2230   21.0840    2.7170 N.am   29  ASP29      -0.1957
     38  CA        21.5130   20.5460    2.2760 C.3    29  ASP29       0.1840
     39  C         21.3790   19.9990    0.8570 C.2    29  ASP29       0.2622
     40  O         22.2840   20.1360    0.0350 O.2    29  ASP29      -0.2715
     41  CB        21.9450   19.3850    3.1790 C.3    29  ASP29       0.1450
     42  CG        22.1780   19.8060    4.6050 C.2    29  ASP29       0.3671
     43  OD1       22.0420   18.9500    5.5000 O.co2  29  ASP29      -0.2456
     44  OD2       22.5040   20.9880    4.8320 O.co2  29  ASP29      -0.2456
     45  N         20.2520   19.3450    0.6070 N.am   30  ASP30      -0.1971
     46  CA        19.9650   18.7000   -0.6620 C.3    30  ASP30       0.1709
     47  C         18.8420   19.3380   -1.4640 C.2    30  ASP30       0.2293
     48  O         18.0570   20.1390   -0.9550 O.2    30  ASP30      -0.2864
     49  CB        19.5620   17.2440   -0.4170 C.3    30  ASP30       0.1436
     50  CG        20.5830   16.4660    0.3960 C.2    30  ASP30       0.3671
     51  OD1       20.1880   15.7740    1.3730 O.co2  30  ASP30      -0.2456
     52  OD2       21.7750   16.5200    0.0490 O.co2  30  ASP30      -0.2456
     53  N         15.4100   18.5980   -3.3990 N.3    32  VAL32      -0.1245
     54  CA        14.3100   17.6350   -3.3740 C.3    32  VAL32       0.1561
     55  C         13.2260   18.1700   -4.2930 C.2    32  VAL32       0.2260
     56  O         12.8140   19.3270   -4.1880 O.2    32  VAL32      -0.2867
     57  CB        13.6920   17.4800   -1.9820 C.3    32  VAL32       0.0252
     58  CG1       12.7630   16.2910   -1.9540 C.3    32  VAL32       0.0019
     59  CG2       14.7680   17.3720   -0.9200 C.3    32  VAL32       0.0019
     60  N         15.6850   11.8030    4.8350 N.3    47  ILE47      -0.1231
     61  CA        16.0680   13.1850    5.0610 C.3    47  ILE47       0.1692
     62  C         15.1590   13.7680    6.1380 C.2    47  ILE47       0.2593
     63  O         13.9800   13.4160    6.2330 O.2    47  ILE47      -0.2718
     64  CB        16.0160   14.0450    3.7500 C.3    47  ILE47       0.0266
     65  CG1       14.6080   14.0890    3.1810 C.3    47  ILE47       0.0019
     66  CG2       17.0060   13.5050    2.7080 C.3    47  ILE47       0.0020
     67  CD1       14.4900   14.9420    1.9440 C.3    47  ILE47       0.0001
     68  N         15.7390   14.5910    7.0010 N.am   48  GLY48      -0.1942
     69  CA        14.9770   15.1960    8.0710 C.3    48  GLY48       0.2014
     70  C         14.6300   16.6390    7.8020 C.2    48  GLY48       0.2639
     71  O         15.4420   17.4090    7.3170 O.2    48  GLY48      -0.2714
     72  N         13.4170   17.0120    8.1430 N.am   49  GLY49      -0.1939
     73  CA        12.9970   18.3730    7.9400 C.3    49  GLY49       0.2014
     74  C         12.4700   18.8830    9.2550 C.2    49  GLY49       0.2638
     75  O         12.8350   18.3860   10.3230 O.2    49  GLY49      -0.2714
     76  N         11.5710   19.8530    9.1540 N.am   50  ILE50      -0.1977
     77  CA        10.9230   20.5020   10.2930 C.3    50  ILE50       0.1596
     78  C          9.9630   19.5660   11.0290 C.2    50  ILE50       0.2287
     79  O          9.9260   19.5520   12.2600 O.2    50  ILE50      -0.2864
     80  CB        10.1800   21.8120    9.8200 C.3    50  ILE50       0.0276
     81  CG1       11.1000   23.0190   10.0100 C.3    50  ILE50       0.0022
     82  CG2        8.8560   22.0230   10.5360 C.3    50  ILE50       0.0022
     83  CD1       11.5850   23.1840   11.4440 C.3    50  ILE50       0.0001
     84  N          6.6330   19.5890   -0.1770 N.3    81  PRO81      -0.2102
     85  CA         5.5910   20.5940   -0.4050 C.3    81  PRO81       0.1504
     86  C          5.8540   21.4110   -1.6850 C.2    81  PRO81       0.2575
     87  O          4.8980   21.8040   -2.3780 O.2    81  PRO81      -0.2718
     88  CB         5.6710   21.4500    0.8560 C.3    81  PRO81       0.0282
     89  CG         6.2060   20.5040    1.9000 C.3    81  PRO81       0.0208
     90  CD         7.2520   19.7610    1.1560 C.3    81  PRO81       0.0893
     91  N          7.1330   21.6440   -1.9930 N.am   82  VAL82      -0.1980
     92  CA         7.5450   22.4120   -3.1720 C.3    82  VAL82       0.1595
     93  C          8.8860   21.9120   -3.6630 C.2    82  VAL82       0.2287
     94  O          9.6110   21.2530   -2.9250 O.2    82  VAL82      -0.2864
     95  CB         7.7640   23.9240   -2.8540 C.3    82  VAL82       0.0276
     96  CG1        6.4530   24.6070   -2.5220 C.3    82  VAL82       0.0022
     97  CG2        8.7710   24.0930   -1.7130 C.3    82  VAL82       0.0022
     98  N         12.5760   22.0840   -4.1240 N.3    84  ILE84      -0.1245
     99  CA        13.6080   22.7390   -3.3310 C.3    84  ILE84       0.1561
    100  C         14.9970   22.5890   -3.9430 C.2    84  ILE84       0.2260
    101  O         15.4510   21.4820   -4.1460 O.2    84  ILE84      -0.2867
    102  CB        13.6350   22.0960   -1.9100 C.3    84  ILE84       0.0252
    103  CG1       12.3600   22.4220   -1.1680 C.3    84  ILE84       0.0019
    104  CG2       14.8080   22.5760   -1.0900 C.3    84  ILE84       0.0019
    105  CD1       12.1290   21.4870   -0.0110 C.3    84  ILE84       0.0001
@<TRIPOS>BOND
     1    12    13    1
     2    13    14    1
     3    13    16    1
     4     4     3    2
     5    55    56    2
     6    55    54    1
     7   101   100    2
     8    98    99    1
     9    14    15    2
    10   100    99    1
    11    93    92    1
    12    93    94    2
    13    53    54    1
    14    54    57    1
    15    99   102    1
    16     3     2    1
    17    16    17    1
    18    92    95    1
    19    92    91    1
    20    95    96    1
    21    95    97    1
    22    18    17    1
    23    87    86    2
    24     5     2    1
    25     5     6    1
    26     2     1    1
    27    17    19    1
    28    91    86   am
    29    57    58    1
    30    57    59    1
    31   102   103    1
    32   102   104    1
    33    86    85    1
    34    20    21    1
    35    47    48    2
    36    47    46    1
    37   103   105    1
    38     7     6    1
    39     7     8    1
    40    11     9    1
    41    46    49    1
    42    46    45    1
    43    49    50    1
    44    85    84    1
    45    85    88    1
    46    21    24    1
    47    21    22    1
    48    84    90    1
    49    24    25    1
    50    40    39    2
    51    52    50   ar
    52     8     9    2
    53     9    10    1
    54    50    51   ar
    55    23    22    2
    56    45    39   am
    57    88    89    1
    58    39    38    1
    59    90    89    1
    60    35    34    2
    61    25    26   ar
    62    25    27   ar
    63    36    33    1
    64    67    65    1
    65    34    33    1
    66    34    37   am
    67    38    37    1
    68    38    41    1
    69    33    32    1
    70    66    64    1
    71    32    30   am
    72    41    42    1
    73    65    64    1
    74    28    29    1
    75    64    61    1
    76    30    29    1
    77    30    31    2
    78    42    44   ar
    79    42    43   ar
    80    60    61    1
    81    61    62    1
    82    62    63    2
    83    62    68   am
    84    68    69    1
    85    71    70    2
    86    70    69    1
    87    70    72   am
    88    73    72    1
    89    73    74    1
    90    76    74   am
    91    76    77    1
    92    74    75    2
    93    80    81    1
    94    80    77    1
    95    80    82    1
    96    81    83    1
    97    77    78    1
    98    78    79    2
