@<TRIPOS>MOLECULE
tmp/1npoA00.pdb
 140 137 0 0 0
SMALL
GASTEIGER

@<TRIPOS>ATOM
      1  N         62.8640   31.0080   17.5060 N.3     1  LEU1       -0.1245
      2  CA        61.9290   31.1990   18.6650 C.3     1  LEU1        0.1561
      3  C         61.8240   29.9310   19.5140 C.2     1  LEU1        0.2260
      4  O         61.5960   28.8420   18.9770 O.2     1  LEU1       -0.2867
      5  CB        60.5390   31.5760   18.1660 C.3     1  LEU1        0.0270
      6  CG        59.7410   32.5090   19.0680 C.3     1  LEU1        0.0019
      7  CD1       60.4060   33.8720   19.0860 C.3     1  LEU1        0.0001
      8  CD2       58.3190   32.6430   18.5560 C.3     1  LEU1        0.0001
      9  N         60.0530   27.7060   21.5790 N.3     3  LEU3       -0.1245
     10  CA        58.7430   27.2420   22.0250 C.3     3  LEU3        0.1561
     11  C         58.7540   25.8100   22.5580 C.2     3  LEU3        0.2260
     12  O         59.6220   25.0070   22.2160 O.2     3  LEU3       -0.2867
     13  CB        57.7450   27.3240   20.8830 C.3     3  LEU3        0.0270
     14  CG        57.5960   28.6800   20.2240 C.3     3  LEU3        0.0019
     15  CD1       56.8120   28.5150   18.9350 C.3     3  LEU3        0.0001
     16  CD2       56.8890   29.6290   21.1600 C.3     3  LEU3        0.0001
     17  N         53.8550   20.9970   21.4880 N.3     6  CYS6       -0.1235
     18  CA        52.4620   21.0510   21.8920 C.3     6  CYS6        0.1677
     19  C         52.0950   19.7430   22.5560 C.2     6  CYS6        0.2270
     20  O         52.9390   18.8600   22.6740 O.2     6  CYS6       -0.2867
     21  CB        51.5790   21.2810   20.6840 C.3     6  CYS6        0.0956
     22  SG        52.1130   22.7060   19.7100 S.3     6  CYS6       -0.0801
     23  N         50.8670   16.9800   18.8450 N.3    17  CYS17      -0.1221
     24  CA        49.9460   17.7890   18.0630 C.3    17  CYS17       0.1808
     25  C         50.7160   18.8080   17.2760 C.2    17  CYS17       0.2601
     26  O         51.6360   19.4130   17.8090 O.2    17  CYS17      -0.2717
     27  CB        48.9770   18.5120   18.9670 C.3    17  CYS17       0.0970
     28  SG        48.0140   17.3470   19.9520 S.3    17  CYS17      -0.0800
     29  N         50.3900   18.9380   15.9900 N.am   18  PHE18      -0.1962
     30  CA        50.8980   20.0360   15.1590 C.3    18  PHE18       0.1771
     31  C         49.8450   21.0720   14.8020 C.2    18  PHE18       0.2620
     32  O         50.1570   22.0920   14.1800 O.2    18  PHE18      -0.2715
     33  CB        51.5080   19.5030   13.8800 C.3    18  PHE18       0.0574
     34  CG        52.8290   18.8310   14.0810 C.ar   18  PHE18      -0.0200
     35  CD1       52.9080   17.6320   14.7750 C.ar   18  PHE18      -0.0042
     36  CD2       53.9690   19.3350   13.4780 C.ar   18  PHE18      -0.0042
     37  CE1       54.0920   16.9390   14.8510 C.ar   18  PHE18      -0.0003
     38  CE2       55.1540   18.6580   13.5480 C.ar   18  PHE18      -0.0003
     39  CZ        55.2200   17.4540   14.2330 C.ar   18  PHE18      -0.0000
     40  N         48.6140   20.8160   15.2350 N.am   19  GLY19      -0.1940
     41  CA        47.5290   21.7780   15.1210 C.3    19  GLY19       0.1998
     42  C         46.2830   21.1320   15.6830 C.2    19  GLY19       0.2480
     43  O         46.2870   19.9320   15.9330 O.2    19  GLY19      -0.2729
     44  N         45.1660   21.8490   15.7800 N.am   20  PRO20      -0.2726
     45  CA        43.9780   21.3710   16.5080 C.3    20  PRO20       0.1402
     46  C         43.5600   19.9320   16.2350 C.2    20  PRO20       0.2269
     47  O         42.9860   19.2790   17.1030 O.2    20  PRO20      -0.2865
     48  CB        42.8850   22.3440   16.0840 C.3    20  PRO20       0.0296
     49  CG        43.6470   23.6260   15.7960 C.3    20  PRO20       0.0237
     50  CD        44.9520   23.1700   15.1700 C.3    20  PRO20       0.0939
     51  N         44.5310   17.1300   20.6810 N.3    40  CYS40      -0.1235
     52  CA        45.0860   18.3050   20.0500 C.3    40  CYS40       0.1677
     53  C         44.1540   19.4880   20.0900 C.2    40  CYS40       0.2270
     54  O         44.5840   20.6080   19.8820 O.2    40  CYS40      -0.2867
     55  CB        45.4640   17.9750   18.6240 C.3    40  CYS40       0.0956
     56  SG        46.6590   16.6160   18.6440 S.3    40  CYS40      -0.0801
     57  N         45.0770   21.8210   23.2870 N.3    43  GLU43      -0.1231
     58  CA        46.1410   22.8160   23.0610 C.3    43  GLU43       0.1699
     59  C         45.6360   24.2110   22.7830 C.2    43  GLU43       0.2592
     60  O         46.3680   25.1750   22.9410 O.2    43  GLU43      -0.2718
     61  CB        47.0210   22.4500   21.8760 C.3    43  GLU43       0.0402
     62  CG        48.4140   22.0780   22.2630 C.3    43  GLU43       0.1161
     63  CD        49.2290   23.2020   22.8770 C.2    43  GLU43       0.3649
     64  OE1       48.7770   24.3640   22.9240 O.co2  43  GLU43      -0.2457
     65  OE2       50.3730   22.9070   23.2760 O.co2  43  GLU43      -0.2457
     66  N         44.4380   24.3110   22.2380 N.am   44  ASN44      -0.1974
     67  CA        43.8840   25.6140   21.9220 C.3    44  ASN44       0.1688
     68  C         43.6210   26.5150   23.1320 C.2    44  ASN44       0.2292
     69  O         43.8840   27.7190   23.0730 O.2    44  ASN44      -0.2864
     70  CB        42.6130   25.4670   21.0890 C.3    44  ASN44       0.1181
     71  CG        42.9030   25.3530   19.6110 C.2    44  ASN44       0.2629
     72  OD1       42.2370   24.5910   18.9170 O.2    44  ASN44      -0.2716
     73  ND2       43.9040   26.0880   19.1170 N.am   44  ASN44      -0.0877
     74  N         45.2930   26.2040   26.2910 N.3    46  LEU46      -0.1231
     75  CA        46.5930   26.5540   26.8380 C.3    46  LEU46       0.1678
     76  C         47.0380   27.9230   26.3260 C.2    46  LEU46       0.2434
     77  O         47.1690   28.1420   25.1250 O.2    46  LEU46      -0.2733
     78  CB        47.6200   25.5040   26.4410 C.3    46  LEU46       0.0284
     79  CG        48.0460   24.4830   27.4790 C.3    46  LEU46       0.0019
     80  CD1       46.9860   24.2800   28.5120 C.3    46  LEU46       0.0001
     81  CD2       48.3620   23.1950   26.7840 C.3    46  LEU46       0.0001
     82  N         47.3600   28.8350   27.2360 N.am   47  PRO47      -0.2718
     83  CA        47.6710   30.1990   26.8260 C.3    47  PRO47       0.1535
     84  C         49.0910   30.3860   26.3180 C.2    47  PRO47       0.2599
     85  O         49.4330   31.4440   25.8140 O.2    47  PRO47      -0.2715
     86  CB        47.4160   31.0030   28.0930 C.3    47  PRO47       0.0310
     87  CG        47.7120   30.0430   29.1780 C.3    47  PRO47       0.0237
     88  CD        47.1440   28.7470   28.6880 C.3    47  PRO47       0.0939
     89  N         49.9220   29.3660   26.4210 N.am   48  SER48      -0.1937
     90  CA        51.3020   29.5260   25.9800 C.3    48  SER48       0.2040
     91  C         51.4730   28.9830   24.5790 C.2    48  SER48       0.2485
     92  O         50.8250   27.9970   24.2130 O.2    48  SER48      -0.2729
     93  CB        52.2580   28.8030   26.9260 C.3    48  SER48       0.2129
     94  OG        51.9300   27.4290   27.0330 O.3    48  SER48      -0.2179
     95  N         52.3570   29.6050   23.7760 N.am   49  PRO49      -0.2715
     96  CA        52.6010   29.2240   22.3890 C.3    49  PRO49       0.1536
     97  C         53.4600   27.9740   22.3190 C.2    49  PRO49       0.2599
     98  O         54.3370   27.7760   23.1480 O.2    49  PRO49      -0.2715
     99  CB        53.3350   30.4250   21.8330 C.3    49  PRO49       0.0310
    100  CG        54.1440   30.8620   22.9590 C.3    49  PRO49       0.0237
    101  CD        53.2710   30.6800   24.1820 C.3    49  PRO49       0.0939
    102  N         53.1650   27.1040   21.3660 N.am   50  CYS50      -0.1954
    103  CA        53.9210   25.8780   21.2080 C.3    50  CYS50       0.1843
    104  C         54.1230   25.6460   19.7390 C.2    50  CYS50       0.2625
    105  O         53.3300   26.1020   18.9250 O.2    50  CYS50      -0.2714
    106  CB        53.1480   24.7010   21.7760 C.3    50  CYS50       0.0997
    107  SG        51.6230   24.3090   20.8530 S.3    50  CYS50      -0.0797
    108  N         55.1070   24.8210   19.4180 N.am   51  GLN51      -0.1977
    109  CA        55.4800   24.5100   18.0360 C.3    51  GLN51       0.1601
    110  C         56.1920   23.1450   18.0690 C.2    51  GLN51       0.2287
    111  O         57.0040   22.8860   18.9680 O.2    51  GLN51      -0.2864
    112  CB        56.4050   25.6100   17.4790 C.3    51  GLN51       0.0394
    113  CG        56.8500   25.4340   16.0370 C.3    51  GLN51       0.0908
    114  CD        56.5940   26.6690   15.1700 C.2    51  GLN51       0.2608
    115  OE1       55.6380   26.7130   14.3850 O.2    51  GLN51      -0.2717
    116  NE2       57.4710   27.6560   15.2730 N.am   51  GLN51      -0.0878
    117  N         54.6410   26.4390    6.0230 N.3    60  GLY60      -0.1210
    118  CA        54.8180   27.2710    7.2040 C.3    60  GLY60       0.1956
    119  C         55.2400   26.4700    8.4300 C.2    60  GLY60       0.2612
    120  O         55.7980   27.0070    9.3910 O.2    60  GLY60      -0.2717
    121  N         54.9600   25.1720    8.3970 N.am   61  GLY61      -0.1956
    122  CA        55.2520   24.3220    9.5340 C.3    61  GLY61       0.1869
    123  C         56.5380   23.5360    9.3950 C.2    61  GLY61       0.2309
    124  O         57.4910   23.9920    8.7670 O.2    61  GLY61      -0.2863
    125  N         51.9110   21.9240    8.9070 N.3    71  ASN71      -0.1225
    126  CA        51.7550   23.0540    9.8080 C.3    71  ASN71       0.1785
    127  C         50.4660   22.8740   10.6140 C.2    71  ASN71       0.2597
    128  O         49.9800   21.7610   10.7440 O.2    71  ASN71      -0.2718
    129  CB        51.7640   24.3780    9.0350 C.3    71  ASN71       0.1169
    130  CG        50.6290   24.5020    8.0540 C.2    71  ASN71       0.2627
    131  OD1       49.6090   23.8220    8.1620 O.2    71  ASN71      -0.2716
    132  ND2       50.7650   25.4360    7.1300 N.am   71  ASN71      -0.0877
    133  N         49.8580   23.9570   11.0790 N.am   72  ASP72      -0.1974
    134  CA        48.7400   23.8190   11.9940 C.3    72  ASP72       0.1709
    135  C         47.3990   23.5250   11.3150 C.2    72  ASP72       0.2293
    136  O         46.3560   23.5430   11.9670 O.2    72  ASP72      -0.2864
    137  CB        48.6330   25.0640   12.8640 C.3    72  ASP72       0.1436
    138  CG        48.2150   26.2910   12.0810 C.2    72  ASP72       0.3671
    139  OD1       49.0300   26.7830   11.2690 O.co2  72  ASP72      -0.2456
    140  OD2       47.0850   26.7840   12.3080 O.co2  72  ASP72      -0.2456
@<TRIPOS>BOND
     1   117   118    1
     2   132   130   am
     3   118   119    1
     4   130   131    2
     5   130   129    1
     6   121   119   am
     7   121   122    1
     8   119   120    2
     9   124   123    2
    10   125   126    1
    11   129   126    1
    12   123   122    1
    13   126   127    1
    14   127   128    2
    15   127   133   am
    16   133   134    1
    17   139   138   ar
    18   135   136    2
    19   135   134    1
    20   134   137    1
    21   138   140   ar
    22   138   137    1
    23    36    38   ar
    24    36    34   ar
    25    38    39   ar
    26    33    34    1
    27    33    30    1
    28    34    35   ar
    29    32    31    2
    30    39    37   ar
    31   115   114    2
    32    35    37   ar
    33    31    30    1
    34    31    40   am
    35    41    40    1
    36    41    42    1
    37    30    29    1
    38    50    44    1
    39    50    49    1
    40   114   116   am
    41   114   113    1
    42    42    44   am
    43    42    43    2
    44    44    45    1
    45    49    48    1
    46    29    25   am
    47   113   112    1
    48    48    45    1
    49    46    45    1
    50    46    47    2
    51    25    26    2
    52    25    24    1
    53   112   109    1
    54     1     2    1
    55   109   110    1
    56   109   108    1
    57    24    23    1
    58    24    27    1
    59   110   111    2
    60     5     2    1
    61     5     6    1
    62     8     6    1
    63    55    56    1
    64    55    52    1
    65    56    28    1
    66     2     3    1
    67    72    71    2
    68   105   104    2
    69    15    14    1
    70    27    28    1
    71     4     3    2
    72     6     7    1
    73    73    71   am
    74   108   104   am
    75    71    70    1
    76    22    21    1
    77    22   107    1
    78   104   103    1
    79    54    53    2
    80    52    53    1
    81    52    51    1
    82    14    13    1
    83    14    16    1
    84    21    18    1
    85   107   106    1
    86    13    10    1
    87    70    67    1
    88   103   102    1
    89   103   106    1
    90   102    97   am
    91    17    18    1
    92     9    10    1
    93    99    96    1
    94    99   100    1
    95    61    62    1
    96    61    58    1
    97    18    19    1
    98    67    66    1
    99    67    68    1
   100    10    11    1
   101    12    11    2
   102    66    59   am
   103    62    63    1
   104    97    96    1
   105    97    98    2
   106    96    95    1
   107    19    20    2
   108    59    60    2
   109    59    58    1
   110    63    64   ar
   111    63    65   ar
   112   100   101    1
   113    58    57    1
   114    69    68    2
   115    95   101    1
   116    95    91   am
   117    92    91    2
   118    91    90    1
   119    77    76    2
   120    85    84    2
   121    90    89    1
   122    90    93    1
   123    74    75    1
   124    84    89   am
   125    84    83    1
   126    76    75    1
   127    76    82   am
   128    78    75    1
   129    78    79    1
   130    81    79    1
   131    83    82    1
   132    83    86    1
   133    93    94    1
   134    82    88    1
   135    79    80    1
   136    86    87    1
   137    88    87    1
