@<TRIPOS>MOLECULE
tmp/1npvB00.pdb
 105 98 0 0 0
SMALL
GASTEIGER

@<TRIPOS>ATOM
      1  N          9.2840   35.5390   -1.7610 N.3     8  ARG8       -0.1245
      2  CA         9.9680   34.2520   -1.8280 C.3     8  ARG8        0.1563
      3  C         10.8540   34.2290   -3.0670 C.2     8  ARG8        0.2260
      4  O         10.4230   34.6180   -4.1360 O.2     8  ARG8       -0.2867
      5  CB         8.9670   33.1000   -1.9170 C.3     8  ARG8        0.0307
      6  CG         8.2070   32.8060   -0.6480 C.3     8  ARG8        0.0489
      7  CD         7.3280   31.5950   -0.8380 C.3     8  ARG8        0.2205
      8  NE         6.7290   31.1640    0.4170 N.pl3   8  ARG8       -0.0865
      9  CZ         5.9050   30.1280    0.5360 C.cat   8  ARG8        0.5346
     10  NH1        5.4110   29.8120    1.7220 N.pl3   8  ARG8        0.1354
     11  NH2        5.5740   29.4070   -0.5300 N.pl3   8  ARG8        0.1354
     12  N         12.1720   27.0060   -5.2070 N.3    23  LEU23      -0.1245
     13  CA        12.5800   27.9880   -4.2110 C.3    23  LEU23       0.1561
     14  C         14.0700   27.8970   -3.8770 C.2    23  LEU23       0.2260
     15  O         14.5770   26.8180   -3.5890 O.2    23  LEU23      -0.2867
     16  CB        11.7480   27.7710   -2.9390 C.3    23  LEU23       0.0270
     17  CG        12.0110   28.5530   -1.6500 C.3    23  LEU23       0.0019
     18  CD1       11.5060   29.9690   -1.7780 C.3    23  LEU23       0.0001
     19  CD2       11.3030   27.8630   -0.5000 C.3    23  LEU23       0.0001
     20  N         16.5690   27.8280   -1.5340 N.3    25  ASP25      -0.1239
     21  CA        16.5200   27.5250   -0.1100 C.3    25  ASP25       0.1674
     22  C         17.8960   27.2890    0.5340 C.2    25  ASP25       0.2266
     23  O         18.3970   26.1730    0.5330 O.2    25  ASP25      -0.2867
     24  CB        15.6240   26.2750    0.0330 C.3    25  ASP25       0.1410
     25  CG        15.0360   26.1070    1.4170 C.2    25  ASP25       0.3668
     26  OD1       13.8290   25.8160    1.4970 O.co2  25  ASP25      -0.2456
     27  OD2       15.7660   26.2440    2.4170 O.co2  25  ASP25      -0.2456
     28  N         18.5600   27.1570    3.5510 N.3    27  GLY27      -0.1210
     29  CA        18.4030   26.3310    4.7380 C.3    27  GLY27       0.1956
     30  C         18.3000   24.8350    4.4590 C.2    27  GLY27       0.2612
     31  O         18.1790   24.0350    5.3800 O.2    27  GLY27      -0.2717
     32  N         18.3290   24.4530    3.1870 N.am   28  ALA28      -0.1965
     33  CA        18.2640   23.0480    2.8160 C.3    28  ALA28       0.1728
     34  C         19.6270   22.6170    2.2700 C.2    28  ALA28       0.2616
     35  O         20.1830   23.2730    1.3830 O.2    28  ALA28      -0.2715
     36  CB        17.1820   22.8340    1.7650 C.3    28  ALA28       0.0334
     37  N         20.1780   21.5310    2.8030 N.am   29  ASP29      -0.1957
     38  CA        21.4740   21.0380    2.3290 C.3    29  ASP29       0.1840
     39  C         21.3330   20.4630    0.9200 C.2    29  ASP29       0.2622
     40  O         22.1970   20.6330    0.0700 O.2    29  ASP29      -0.2715
     41  CB        21.9960   19.9110    3.2240 C.3    29  ASP29       0.1450
     42  CG        22.1910   20.3310    4.6610 C.2    29  ASP29       0.3671
     43  OD1       21.7850   19.5520    5.5420 O.co2  29  ASP29      -0.2456
     44  OD2       22.7590   21.4110    4.9230 O.co2  29  ASP29      -0.2456
     45  N         20.2210   19.7760    0.6980 N.am   30  ASP30      -0.1971
     46  CA        19.9500   19.1020   -0.5600 C.3    30  ASP30       0.1709
     47  C         18.8250   19.7060   -1.3710 C.2    30  ASP30       0.2293
     48  O         18.1070   20.5820   -0.9220 O.2    30  ASP30      -0.2864
     49  CB        19.6150   17.6350   -0.2830 C.3    30  ASP30       0.1436
     50  CG        20.7300   16.9100    0.4180 C.2    30  ASP30       0.3671
     51  OD1       20.4840   16.3360    1.4990 O.co2  30  ASP30      -0.2456
     52  OD2       21.8540   16.9120   -0.1140 O.co2  30  ASP30      -0.2456
     53  N         15.3350   18.9890   -3.2250 N.3    32  VAL32      -0.1245
     54  CA        14.1970   18.0740   -3.1740 C.3    32  VAL32       0.1561
     55  C         13.1020   18.5600   -4.1030 C.2    32  VAL32       0.2260
     56  O         12.6480   19.6850   -3.9970 O.2    32  VAL32      -0.2867
     57  CB        13.5770   17.9880   -1.7600 C.3    32  VAL32       0.0252
     58  CG1       12.5050   16.9090   -1.7440 C.3    32  VAL32       0.0019
     59  CG2       14.6460   17.7080   -0.7200 C.3    32  VAL32       0.0019
     60  N         16.3590   12.0590    5.0150 N.3    47  ILE47      -0.1231
     61  CA        16.6700   13.4590    5.2520 C.3    47  ILE47       0.1692
     62  C         15.8630   14.0230    6.4050 C.2    47  ILE47       0.2593
     63  O         14.7460   13.6000    6.6540 O.2    47  ILE47      -0.2718
     64  CB        16.4100   14.3290    3.9940 C.3    47  ILE47       0.0266
     65  CG1       14.9470   14.1830    3.5650 C.3    47  ILE47       0.0019
     66  CG2       17.3790   13.9340    2.8730 C.3    47  ILE47       0.0020
     67  CD1       14.5510   15.0690    2.3990 C.3    47  ILE47       0.0001
     68  N         16.4490   14.9880    7.1050 N.am   48  GLY48      -0.1942
     69  CA        15.7610   15.6090    8.2210 C.3    48  GLY48       0.2014
     70  C         15.1720   16.9670    7.8840 C.2    48  GLY48       0.2639
     71  O         15.8480   17.8470    7.3320 O.2    48  GLY48      -0.2714
     72  N         13.9000   17.1400    8.2200 N.am   49  GLY49      -0.1939
     73  CA        13.2330   18.4000    7.9610 C.3    49  GLY49       0.2014
     74  C         12.7170   19.0000    9.2490 C.2    49  GLY49       0.2638
     75  O         13.0560   18.5410   10.3290 O.2    49  GLY49      -0.2714
     76  N         11.8900   20.0310    9.1290 N.am   50  ILE50      -0.1977
     77  CA        11.3240   20.7050   10.2910 C.3    50  ILE50       0.1596
     78  C         10.3900   19.7830   11.0870 C.2    50  ILE50       0.2287
     79  O         10.3280   19.8640   12.3090 O.2    50  ILE50      -0.2864
     80  CB        10.5480   21.9940    9.8640 C.3    50  ILE50       0.0276
     81  CG1       10.2120   22.8080   11.1120 C.3    50  ILE50       0.0022
     82  CG2        9.2770   21.6490    9.1040 C.3    50  ILE50       0.0022
     83  CD1       11.4210   23.4710   11.7350 C.3    50  ILE50       0.0001
     84  N          6.1740   20.3080   -0.0150 N.3    81  PRO81      -0.2102
     85  CA         5.2100   21.3290   -0.4450 C.3    81  PRO81       0.1504
     86  C          5.6670   22.1530   -1.6520 C.2    81  PRO81       0.2575
     87  O          4.8530   22.6430   -2.4050 O.2    81  PRO81      -0.2718
     88  CB         5.0140   22.1810    0.8120 C.3    81  PRO81       0.0282
     89  CG         6.2840   21.9820    1.5720 C.3    81  PRO81       0.0208
     90  CD         6.5950   20.5270    1.3800 C.3    81  PRO81       0.0893
     91  N          6.9760   22.2850   -1.8310 N.am   82  VAL82      -0.1980
     92  CA         7.5300   23.0510   -2.9480 C.3    82  VAL82       0.1595
     93  C          8.8090   22.4220   -3.4720 C.2    82  VAL82       0.2287
     94  O          9.4500   21.6490   -2.7830 O.2    82  VAL82      -0.2864
     95  CB         7.9010   24.5030   -2.5380 C.3    82  VAL82       0.0276
     96  CG1        6.6570   25.3150   -2.2280 C.3    82  VAL82       0.0022
     97  CG2        8.8390   24.4680   -1.3400 C.3    82  VAL82       0.0022
     98  N         12.4460   22.4100   -4.0210 N.3    84  ILE84      -0.1245
     99  CA        13.5030   23.0290   -3.2300 C.3    84  ILE84       0.1561
    100  C         14.8870   22.8790   -3.8480 C.2    84  ILE84       0.2260
    101  O         15.3390   21.7660   -4.1220 O.2    84  ILE84      -0.2867
    102  CB        13.5420   22.4010   -1.8040 C.3    84  ILE84       0.0252
    103  CG1       12.2970   22.8100   -1.0300 C.3    84  ILE84       0.0019
    104  CG2       14.7820   22.8240   -1.0500 C.3    84  ILE84       0.0019
    105  CD1       12.1540   22.0590    0.2860 C.3    84  ILE84       0.0001
@<TRIPOS>BOND
     1    12    13    1
     2    13    14    1
     3    13    16    1
     4     4     3    2
     5   101   100    2
     6    55    56    2
     7    55    54    1
     8    98    99    1
     9    14    15    2
    10   100    99    1
    11    93    92    1
    12    93    94    2
    13    99   102    1
    14    53    54    1
    15    54    57    1
    16     3     2    1
    17    92    95    1
    18    92    91    1
    19    16    17    1
    20    95    96    1
    21    95    97    1
    22    87    86    2
    23     5     2    1
    24     5     6    1
    25    91    86   am
    26     2     1    1
    27   102   104    1
    28   102   103    1
    29    18    17    1
    30    57    58    1
    31    57    59    1
    32    86    85    1
    33    17    19    1
    34    20    21    1
    35    47    48    2
    36    47    46    1
    37   103   105    1
    38     7     6    1
    39     7     8    1
    40    46    49    1
    41    46    45    1
    42    11     9    1
    43    85    84    1
    44    85    88    1
    45    49    50    1
    46    52    50   ar
    47    21    24    1
    48    21    22    1
    49    84    90    1
    50    24    25    1
    51    40    39    2
    52     8     9    2
    53    50    51   ar
    54    23    22    2
    55     9    10    1
    56    45    39   am
    57    88    89    1
    58    39    38    1
    59    90    89    1
    60    35    34    2
    61    25    26   ar
    62    25    27   ar
    63    36    33    1
    64    34    37   am
    65    34    33    1
    66    38    37    1
    67    38    41    1
    68    67    65    1
    69    33    32    1
    70    66    64    1
    71    32    30   am
    72    41    42    1
    73    28    29    1
    74    65    64    1
    75    64    61    1
    76    30    29    1
    77    30    31    2
    78    42    44   ar
    79    42    43   ar
    80    60    61    1
    81    61    62    1
    82    62    63    2
    83    62    68   am
    84    68    69    1
    85    71    70    2
    86    70    72   am
    87    70    69    1
    88    73    72    1
    89    73    74    1
    90    82    80    1
    91    76    74   am
    92    76    77    1
    93    74    75    2
    94    80    77    1
    95    80    81    1
    96    77    78    1
    97    78    79    2
    98    81    83    1
