@<TRIPOS>MOLECULE
tmp/1npzA00.pdb
 172 168 0 0 0
SMALL
GASTEIGER

@<TRIPOS>ATOM
      1  N        -24.5900   49.5510  -40.2030 N.3    19  GLN19      -0.1245
      2  CA       -24.9020   50.9340  -40.5510 C.3    19  GLN19       0.1566
      3  C        -25.3840   51.2290  -41.9900 C.2    19  GLN19       0.2260
      4  O        -26.0240   52.2420  -42.2210 O.2    19  GLN19      -0.2867
      5  CB       -23.7240   51.8670  -40.1740 C.3    19  GLN19       0.0367
      6  CG       -22.4480   51.7000  -40.9690 C.3    19  GLN19       0.0905
      7  CD       -21.3180   52.6640  -40.5130 C.2    19  GLN19       0.2608
      8  OE1      -20.8300   52.5100  -39.3910 O.2    19  GLN19      -0.2717
      9  NE2      -20.8820   53.6220  -41.3210 N.am   19  GLN19      -0.0878
     10  N        -23.0340   57.2670  -42.7780 N.3    23  GLY23      -0.1225
     11  CA       -21.8560   57.3450  -41.9290 C.3    23  GLY23       0.1811
     12  C        -22.1710   57.6160  -40.4670 C.2    23  GLY23       0.2280
     13  O        -21.6200   58.5380  -39.8630 O.2    23  GLY23      -0.2866
     14  N        -21.3410   55.8510  -37.8800 N.3    25  CYS25      -0.1221
     15  CA       -20.4290   55.0890  -37.0230 C.3    25  CYS25       0.1808
     16  C        -20.3360   55.6900  -35.6160 C.2    25  CYS25       0.2601
     17  O        -20.2990   54.9620  -34.6240 O.2    25  CYS25      -0.2717
     18  CB       -19.0210   55.0010  -37.6550 C.3    25  CYS25       0.0970
     19  SG       -18.3120   56.6070  -37.8940 S.3    25  CYS25      -0.0800
     20  N        -20.3150   57.0180  -35.5510 N.am   26  TRP26      -0.1976
     21  CA       -20.2390   57.7490  -34.2870 C.3    26  TRP26       0.1640
     22  C        -21.4770   57.4900  -33.3850 C.2    26  TRP26       0.2290
     23  O        -21.3700   57.4040  -32.1500 O.2    26  TRP26      -0.2864
     24  CB       -20.1250   59.2460  -34.5860 C.3    26  TRP26       0.0576
     25  CG       -21.2870   59.7600  -35.3900 C.ar   26  TRP26       0.0006
     26  CD1      -21.4490   59.6960  -36.7510 C.ar   26  TRP26       0.0946
     27  CD2      -22.4510   60.4220  -34.8740 C.ar   26  TRP26       0.0152
     28  NE1      -22.6500   60.2830  -37.1180 N.ar   26  TRP26      -0.2442
     29  CE2      -23.2770   60.7430  -35.9790 C.ar   26  TRP26       0.0810
     30  CE3      -22.8800   60.7830  -33.5760 C.ar   26  TRP26       0.0012
     31  CZ2      -24.5150   61.4230  -35.8310 C.ar   26  TRP26       0.0191
     32  CZ3      -24.1090   61.4570  -33.4300 C.ar   26  TRP26       0.0001
     33  CH2      -24.8990   61.7660  -34.5500 C.ar   26  TRP26       0.0015
     34  N        -22.6440   69.8420  -33.3630 N.3    62  GLY62      -0.1225
     35  CA       -21.6050   69.7280  -34.3700 C.3    62  GLY62       0.1811
     36  C        -21.6870   68.4470  -35.1640 C.2    62  GLY62       0.2280
     37  O        -20.7560   68.1220  -35.8790 O.2    62  GLY62      -0.2866
     38  N        -23.4140   65.7570  -38.0450 N.3    64  LYS64      -0.1245
     39  CA       -24.0230   65.8280  -39.3700 C.3    64  LYS64       0.1561
     40  C        -24.7310   64.5460  -39.8230 C.2    64  LYS64       0.2260
     41  O        -24.7160   64.2050  -41.0040 O.2    64  LYS64      -0.2867
     42  CB       -22.9630   66.2280  -40.4040 C.3    64  LYS64       0.0271
     43  CG       -22.4420   67.6610  -40.2060 C.3    64  LYS64       0.0035
     44  CD       -21.4790   68.0920  -41.3090 C.3    64  LYS64       0.0206
     45  CE       -20.9560   69.5030  -41.0490 C.3    64  LYS64       0.1093
     46  NZ       -20.1610   70.0370  -42.2030 N.3    64  LYS64      -0.1314
     47  N        -25.7630   61.2980  -41.2300 N.3    66  CYS66      -0.1221
     48  CA       -25.1110   60.3310  -42.0900 C.3    66  CYS66       0.1808
     49  C        -23.7730   60.8590  -42.6020 C.2    66  CYS66       0.2601
     50  O        -23.0020   60.1310  -43.2090 O.2    66  CYS66      -0.2717
     51  CB       -26.0420   59.9390  -43.2530 C.3    66  CYS66       0.0970
     52  SG       -27.5110   58.9560  -42.7400 S.3    66  CYS66      -0.0800
     53  N        -23.4760   62.1160  -42.3180 N.am   67  ASN67      -0.1960
     54  CA       -22.2130   62.6730  -42.7710 C.3    67  ASN67       0.1819
     55  C        -21.1590   62.7880  -41.6850 C.2    67  ASN67       0.2622
     56  O        -20.1160   63.3980  -41.9090 O.2    67  ASN67      -0.2715
     57  CB       -22.4460   64.0240  -43.4550 C.3    67  ASN67       0.1195
     58  CG       -23.1510   63.8620  -44.7800 C.2    67  ASN67       0.2630
     59  OD1      -22.8300   62.9560  -45.5590 O.2    67  ASN67      -0.2716
     60  ND2      -24.1160   64.7260  -45.0460 N.am   67  ASN67      -0.0877
     61  N        -21.4290   62.2030  -40.5170 N.am   68  GLY68      -0.1940
     62  CA       -20.4360   62.2130  -39.4490 C.3    68  GLY68       0.2014
     63  C        -20.8010   62.9190  -38.1620 C.2    68  GLY68       0.2639
     64  O        -21.7060   63.7690  -38.1300 O.2    68  GLY68      -0.2714
     65  N        -20.1100   62.5550  -37.0870 N.am   69  GLY69      -0.1939
     66  CA       -20.3840   63.1590  -35.8010 C.3    69  GLY69       0.2014
     67  C        -19.3400   62.8110  -34.7580 C.2    69  GLY69       0.2639
     68  O        -18.2770   62.2940  -35.0990 O.2    69  GLY69      -0.2714
     69  N        -19.6440   63.0840  -33.4870 N.am   70  PHE70      -0.1959
     70  CA       -18.7280   62.8220  -32.3790 C.3    70  PHE70       0.1771
     71  C        -19.4560   62.0710  -31.2720 C.2    70  PHE70       0.2619
     72  O        -20.6150   62.3690  -30.9820 O.2    70  PHE70      -0.2715
     73  CB       -18.2170   64.1480  -31.7960 C.3    70  PHE70       0.0574
     74  CG       -17.5910   65.0660  -32.8060 C.ar   70  PHE70      -0.0200
     75  CD1      -16.3180   64.8100  -33.3070 C.ar   70  PHE70      -0.0042
     76  CD2      -18.2800   66.1920  -33.2670 C.ar   70  PHE70      -0.0042
     77  CE1      -15.7500   65.6610  -34.2510 C.ar   70  PHE70      -0.0003
     78  CE2      -17.7080   67.0560  -34.2220 C.ar   70  PHE70      -0.0003
     79  CZ       -16.4410   66.7860  -34.7120 C.ar   70  PHE70      -0.0000
     80  N        -18.7770   61.0970  -30.6470 N.am   71  MET71      -0.1977
     81  CA       -19.3940   60.3360  -29.5770 C.3    71  MET71       0.1605
     82  C        -19.5500   61.2330  -28.3590 C.2    71  MET71       0.2287
     83  O        -20.5590   61.1560  -27.6460 O.2    71  MET71      -0.2864
     84  CB       -18.5530   59.0960  -29.2210 C.3    71  MET71       0.0413
     85  CG       -18.5120   58.0330  -30.3130 C.3    71  MET71       0.0598
     86  SD       -17.3530   58.4420  -31.6670 S.3    71  MET71      -0.1393
     87  CE       -15.7950   57.9950  -30.8610 C.3    71  MET71       0.0692
     88  N        -11.9830   56.6540  -31.4660 N.3   137  GLY137     -0.1225
     89  CA       -11.9280   56.9010  -32.8960 C.3   137  GLY137      0.1811
     90  C        -10.6830   56.1900  -33.4070 C.2   137  GLY137      0.2280
     91  O         -9.7200   56.0590  -32.6680 O.2   137  GLY137     -0.2866
     92  N         -9.4480   54.1210  -40.0700 N.3   140  ALA140     -0.1231
     93  CA        -9.8860   52.9000  -40.7430 C.3   140  ALA140      0.1694
     94  C         -9.9080   53.0960  -42.2770 C.2   140  ALA140      0.2591
     95  O        -10.6430   52.4040  -42.9800 O.2   140  ALA140     -0.2718
     96  CB       -11.2750   52.4840  -40.2210 C.3   140  ALA140      0.0304
     97  N         -9.0950   54.0290  -42.7740 N.am  141  ARG141     -0.1980
     98  CA        -9.0030   54.3370  -44.2150 C.3   141  ARG141      0.1597
     99  C         -8.0200   53.4880  -45.0220 C.2   141  ARG141      0.2287
    100  O         -7.4040   54.0040  -45.9630 O.2   141  ARG141     -0.2864
    101  CB        -8.6050   55.8130  -44.4410 C.3   141  ARG141      0.0334
    102  CG        -9.7630   56.7490  -44.4330 C.3   141  ARG141      0.0492
    103  CD        -9.3490   58.2120  -44.5360 C.3   141  ARG141      0.2205
    104  NE       -10.4840   59.0700  -44.1310 N.pl3 141  ARG141     -0.0865
    105  CZ       -10.4040   60.3750  -43.8510 C.cat 141  ARG141      0.5346
    106  NH1       -9.2270   61.0140  -43.9360 N.pl3 141  ARG141      0.1354
    107  NH2      -11.5020   61.0390  -43.4600 N.pl3 141  ARG141      0.1354
    108  N        -10.7620   47.1970  -44.1260 N.3   146  PHE146     -0.1241
    109  CA       -11.9740   46.7760  -44.8240 C.3   146  PHE146      0.1605
    110  C        -11.9210   45.2350  -45.0280 C.2   146  PHE146      0.2264
    111  O        -12.9270   44.5580  -44.8370 O.2   146  PHE146     -0.2867
    112  CB       -12.0460   47.4760  -46.1900 C.3   146  PHE146      0.0534
    113  CG       -13.1890   47.0220  -47.0540 C.ar  146  PHE146     -0.0203
    114  CD1      -14.4590   47.5890  -46.9110 C.ar  146  PHE146     -0.0042
    115  CD2      -12.9960   46.0700  -48.0510 C.ar  146  PHE146     -0.0042
    116  CE1      -15.5220   47.2140  -47.7610 C.ar  146  PHE146     -0.0003
    117  CE2      -14.0570   45.6870  -48.9090 C.ar  146  PHE146     -0.0003
    118  CZ       -15.3190   46.2660  -48.7570 C.ar  146  PHE146     -0.0000
    119  N         -7.8770   60.0610  -36.9580 N.3   162  VAL162     -0.1231
    120  CA        -9.0340   59.1810  -36.8800 C.3   162  VAL162      0.1692
    121  C        -10.2270   59.6150  -37.7500 C.2   162  VAL162      0.2592
    122  O        -10.4310   60.8090  -37.9780 O.2   162  VAL162     -0.2718
    123  CB        -9.4610   59.0100  -35.4010 C.3   162  VAL162      0.0266
    124  CG1       -8.2930   58.4070  -34.6200 C.3   162  VAL162      0.0020
    125  CG2       -9.8730   60.3340  -34.8100 C.3   162  VAL162      0.0020
    126  N        -11.0160   58.6460  -38.2130 N.am  163  ASN163     -0.1960
    127  CA       -12.1440   58.9320  -39.0990 C.3   163  ASN163      0.1819
    128  C        -13.2830   57.9350  -38.9200 C.2   163  ASN163      0.2621
    129  O        -14.2870   57.9800  -39.6240 O.2   163  ASN163     -0.2715
    130  CB       -11.6430   58.8550  -40.5330 C.3   163  ASN163      0.1195
    131  CG       -10.8110   57.6090  -40.7580 C.2   163  ASN163      0.2630
    132  OD1      -11.2900   56.4930  -40.5230 O.2   163  ASN163     -0.2716
    133  ND2       -9.5500   57.7860  -41.1740 N.am  163  ASN163     -0.0877
    134  N        -13.1390   57.0380  -37.9570 N.am  164  HIS164     -0.1959
    135  CA       -14.1610   56.0300  -37.7640 C.3   164  HIS164      0.1787
    136  C        -14.4520   55.8860  -36.2890 C.2   164  HIS164      0.2620
    137  O        -13.5290   55.7300  -35.4950 O.2   164  HIS164     -0.2715
    138  CB       -13.6470   54.7110  -38.3510 C.3   164  HIS164      0.0785
    139  CG       -14.6310   53.5890  -38.3070 C.ar  164  HIS164      0.0821
    140  ND1      -15.9880   53.7790  -38.4230 N.ar  164  HIS164     -0.2267
    141  CD2      -14.4440   52.2540  -38.1680 C.ar  164  HIS164      0.1154
    142  CE1      -16.6010   52.6090  -38.3520 C.ar  164  HIS164      0.1986
    143  NE2      -15.6860   51.6680  -38.1970 N.ar  164  HIS164     -0.2212
    144  N        -15.7260   55.9360  -35.9200 N.am  165  GLY165     -0.1954
    145  CA       -16.0750   55.7970  -34.5170 C.3   165  GLY165      0.1869
    146  C        -16.4660   54.3670  -34.2400 C.2   165  GLY165      0.2309
    147  O        -17.3590   53.8550  -34.9110 O.2   165  GLY165     -0.2863
    148  N        -20.4050   47.2770  -39.0010 N.3   186  TRP186     -0.1241
    149  CA       -20.5640   46.9510  -40.4160 C.3   186  TRP186      0.1605
    150  C        -21.1480   45.5600  -40.5890 C.2   186  TRP186      0.2264
    151  O        -20.8980   44.8860  -41.5930 O.2   186  TRP186     -0.2867
    152  CB       -19.2280   47.0230  -41.1530 C.3   186  TRP186      0.0550
    153  CG       -18.5980   48.3800  -41.2010 C.ar  186  TRP186      0.0003
    154  CD1      -19.1370   49.5710  -40.7650 C.ar  186  TRP186      0.0946
    155  CD2      -17.3030   48.6960  -41.7180 C.ar  186  TRP186      0.0152
    156  NE1      -18.2560   50.5960  -40.9790 N.ar  186  TRP186     -0.2442
    157  CE2      -17.1180   50.0910  -41.5640 C.ar  186  TRP186      0.0810
    158  CE3      -16.2790   47.9390  -42.3040 C.ar  186  TRP186      0.0012
    159  CZ2      -15.9460   50.7440  -41.9670 C.ar  186  TRP186      0.0191
    160  CZ3      -15.1120   48.5850  -42.7060 C.ar  186  TRP186      0.0001
    161  CH2      -14.9580   49.9800  -42.5340 C.ar  186  TRP186      0.0015
    162  N         -8.8520   59.7020  -29.1720 N.3   211  PHE211     -0.1241
    163  CA       -10.0960   60.3900  -28.8270 C.3   211  PHE211      0.1605
    164  C        -11.0490   59.4160  -28.1150 C.2   211  PHE211      0.2264
    165  O        -12.0630   59.0130  -28.6760 O.2   211  PHE211     -0.2867
    166  CB       -10.6980   60.9110  -30.1470 C.3   211  PHE211      0.0534
    167  CG       -11.9630   61.7140  -29.9950 C.ar  211  PHE211     -0.0203
    168  CD1      -12.0760   62.7000  -29.0350 C.ar  211  PHE211     -0.0042
    169  CD2      -13.0110   61.5350  -30.8790 C.ar  211  PHE211     -0.0042
    170  CE1      -13.2150   63.5070  -28.9590 C.ar  211  PHE211     -0.0003
    171  CE2      -14.1580   62.3470  -30.8040 C.ar  211  PHE211     -0.0003
    172  CZ       -14.2430   63.3290  -29.8410 C.ar  211  PHE211     -0.0000
@<TRIPOS>BOND
     1   117   118   ar
     2   117   115   ar
     3   118   116   ar
     4   115   113   ar
     5   116   114   ar
     6   113   114   ar
     7   113   112    1
     8   112   109    1
     9   100    99    2
    10    59    58    2
    11    60    58   am
    12   110   111    2
    13   110   109    1
    14    99    98    1
    15   109   108    1
    16    58    57    1
    17   103   102    1
    18   103   104    1
    19   101   102    1
    20   101    98    1
    21    98    97    1
    22   104   105    2
    23   106   105    1
    24   105   107    1
    25    57    54    1
    26    51    52    1
    27    51    48    1
    28    50    49    2
    29    95    94    2
    30    10    11    1
    31    97    94   am
    32    54    53    1
    33    54    55    1
    34   160   161   ar
    35   160   158   ar
    36    49    53   am
    37    49    48    1
    38   161   159   ar
    39   158   155   ar
    40    94    93    1
    41     4     3    2
    42    46    45    1
    43    48    47    1
    44     3     2    1
    45   159   157   ar
    46    11    12    1
    47    56    55    2
    48   155   157   ar
    49   155   153   ar
    50    55    61   am
    51   151   150    2
    52   157   156   ar
    53     9     7   am
    54    44    45    1
    55    44    43    1
    56   153   152    1
    57   153   154   ar
    58   133   131   am
    59   152   149    1
    60    41    40    2
    61   156   154   ar
    62     6     7    1
    63     6     5    1
    64   131   130    1
    65   131   132    2
    66    93    96    1
    67    93    92    1
    68   150   149    1
    69     2     1    1
    70     2     5    1
    71   130   127    1
    72    61    62    1
    73     7     8    2
    74    12    13    2
    75   149   148    1
    76    42    43    1
    77    42    39    1
    78    40    39    1
    79   129   128    2
    80    62    63    1
    81    39    38    1
    82   127   128    1
    83   127   126    1
    84   128   134   am
    85   140   142   ar
    86   140   139   ar
    87   142   143   ar
    88   138   139    1
    89   138   135    1
    90   139   141   ar
    91   126   121   am
    92   143   141   ar
    93    63    64    2
    94    63    65   am
    95   122   121    2
    96   134   135    1
    97    19    18    1
    98    14    15    1
    99   135   136    1
   100   121   120    1
   101    18    15    1
   102    28    26   ar
   103    28    29   ar
   104    65    66    1
   105    15    16    1
   106   119   120    1
   107   120   123    1
   108    26    25   ar
   109   136   144   am
   110   136   137    2
   111    29    31   ar
   112    29    27   ar
   113   144   145    1
   114    37    36    2
   115    31    33   ar
   116    66    67    1
   117    16    20   am
   118    16    17    2
   119    20    21    1
   120   123   125    1
   121   123   124    1
   122    25    27   ar
   123    25    24    1
   124    36    35    1
   125    68    67    2
   126   147   146    2
   127    27    30   ar
   128    67    69   am
   129    79    77   ar
   130    79    78   ar
   131    24    21    1
   132    33    32   ar
   133   145   146    1
   134    35    34    1
   135    21    22    1
   136    77    75   ar
   137    78    76   ar
   138    30    32   ar
   139    69    70    1
   140    90    89    1
   141    90    91    2
   142    22    23    2
   143    75    74   ar
   144    76    74   ar
   145    89    88    1
   146    74    73    1
   147    70    73    1
   148    70    71    1
   149    86    87    1
   150    86    85    1
   151    71    72    2
   152    71    80   am
   153   169   171   ar
   154   169   167   ar
   155   171   172   ar
   156    80    81    1
   157    85    84    1
   158   166   167    1
   159   166   163    1
   160   167   168   ar
   161   172   170   ar
   162    81    84    1
   163    81    82    1
   164   162   163    1
   165   168   170   ar
   166   163   164    1
   167   165   164    2
   168    82    83    2
