@<TRIPOS>MOLECULE
tmp/1nq7A01.pdb
 224 214 0 0 0
SMALL
GASTEIGER

@<TRIPOS>ATOM
      1  N         30.5980   17.1740   11.8790 N.3    20  CYS20      -0.1221
      2  CA        30.3340   18.6060   11.8130 C.3    20  CYS20       0.1808
      3  C         31.4060   19.1800   10.8950 C.2    20  CYS20       0.2601
      4  O         32.5280   18.6690   10.8640 O.2    20  CYS20      -0.2717
      5  CB        30.4380   19.2520   13.1930 C.3    20  CYS20       0.0970
      6  SG        28.9670   19.0210   14.2070 S.3    20  CYS20      -0.0800
      7  N         31.0710   20.2170   10.1370 N.am   21  GLN21      -0.1965
      8  CA        32.0580   20.8140    9.2450 C.3    21  GLN21       0.1733
      9  C         33.2190   21.3000   10.0970 C.2    21  GLN21       0.2616
     10  O         34.3800   21.2270    9.6920 O.2    21  GLN21      -0.2715
     11  CB        31.4660   21.9890    8.4660 C.3    21  GLN21       0.0408
     12  CG        32.4850   22.6950    7.5830 C.3    21  GLN21       0.0908
     13  CD        31.9090   23.8900    6.8560 C.2    21  GLN21       0.2608
     14  OE1       32.6400   24.6640    6.2370 O.2    21  GLN21      -0.2717
     15  NE2       30.5930   24.0450    6.9200 N.am   21  GLN21      -0.0878
     16  N         32.8900   21.7890   11.2880 N.am   22  TYR22      -0.1974
     17  CA        33.8830   22.2860   12.2270 C.3    22  TYR22       0.1639
     18  C         33.8900   21.4950   13.5230 C.2    22  TYR22       0.2290
     19  O         32.8890   21.4390   14.2360 O.2    22  TYR22      -0.2864
     20  CB        33.6250   23.7620   12.5310 C.3    22  TYR22       0.0560
     21  CG        34.1080   24.6720   11.4380 C.ar   22  TYR22      -0.0198
     22  CD1       35.4720   24.8680   11.2350 C.ar   22  TYR22      -0.0009
     23  CD2       33.2140   25.2970   10.5730 C.ar   22  TYR22      -0.0009
     24  CE1       35.9360   25.6640   10.2020 C.ar   22  TYR22       0.0417
     25  CE2       33.6680   26.0980    9.5300 C.ar   22  TYR22       0.0417
     26  CZ        35.0340   26.2710    9.3500 C.ar   22  TYR22       0.1957
     27  OH        35.5090   27.0420    8.3190 O.3    22  TYR22      -0.2866
     28  N         27.5910   32.1880   -0.5910 N.3    55  CYS55      -0.1235
     29  CA        26.7890   31.7060    0.5200 C.3    55  CYS55       0.1677
     30  C         26.2030   30.3360    0.2020 C.2    55  CYS55       0.2270
     31  O         26.1620   29.4620    1.0710 O.2    55  CYS55      -0.2867
     32  CB        25.6820   32.7100    0.8470 C.3    55  CYS55       0.0956
     33  SG        26.3060   34.2310    1.6040 S.3    55  CYS55      -0.0801
     34  N         28.8570   27.7190    0.8570 N.3    58  GLN58      -0.1231
     35  CA        29.0840   27.4200    2.2670 C.3    58  GLN58       0.1698
     36  C         27.9200   26.6190    2.8370 C.2    58  GLN58       0.2592
     37  O         28.1190   25.6890    3.6180 O.2    58  GLN58      -0.2718
     38  CB        29.2820   28.7060    3.0770 C.3    58  GLN58       0.0381
     39  CG        30.5910   29.4150    2.7590 C.3    58  GLN58       0.0905
     40  CD        31.7850   28.4810    2.8490 C.2    58  GLN58       0.2608
     41  OE1       32.0400   27.8800    3.8930 O.2    58  GLN58      -0.2717
     42  NE2       32.5180   28.3520    1.7500 N.am   58  GLN58      -0.0878
     43  N         26.7030   26.9760    2.4410 N.am   59  ILE59      -0.1980
     44  CA        25.5240   26.2740    2.9290 C.3    59  ILE59       0.1595
     45  C         25.5250   24.8340    2.4200 C.2    59  ILE59       0.2287
     46  O         25.2200   23.9070    3.1740 O.2    59  ILE59      -0.2864
     47  CB        24.2390   27.0240    2.4890 C.3    59  ILE59       0.0276
     48  CG1       24.1330   28.3280    3.2750 C.3    59  ILE59       0.0022
     49  CG2       23.0000   26.1580    2.7190 C.3    59  ILE59       0.0022
     50  CD1       23.0470   29.2620    2.7740 C.3    59  ILE59       0.0001
     51  N         27.9780   22.6630    4.3530 N.3    62  ALA62      -0.1245
     52  CA        27.4130   22.2630    5.6370 C.3    62  ALA62       0.1562
     53  C         26.3390   21.1840    5.4570 C.2    62  ALA62       0.2260
     54  O         26.2730   20.2330    6.2360 O.2    62  ALA62      -0.2867
     55  CB        26.8230   23.4810    6.3510 C.3    62  ALA62       0.0290
     56  N         27.6920   17.7310    5.1150 N.3    65  TYR65      -0.1241
     57  CA        28.0560   17.1320    6.3890 C.3    65  TYR65       0.1605
     58  C         26.8310   16.6130    7.1470 C.2    65  TYR65       0.2264
     59  O         26.9330   15.6570    7.9150 O.2    65  TYR65      -0.2867
     60  CB        28.8540   18.1310    7.2390 C.3    65  TYR65       0.0534
     61  CG        30.3390   18.0860    6.9520 C.ar   65  TYR65      -0.0201
     62  CD1       31.1020   16.9960    7.3620 C.ar   65  TYR65      -0.0009
     63  CD2       30.9720   19.1030    6.2360 C.ar   65  TYR65      -0.0009
     64  CE1       32.4580   16.9100    7.0650 C.ar   65  TYR65       0.0417
     65  CE2       32.3420   19.0250    5.9320 C.ar   65  TYR65       0.0417
     66  CZ        33.0660   17.9220    6.3550 C.ar   65  TYR65       0.1957
     67  OH        34.4100   17.8200    6.0560 O.3    65  TYR65      -0.2866
     68  N         18.6560   21.7800    6.1610 N.3    93  LEU93      -0.1245
     69  CA        18.9810   23.1670    6.4900 C.3    93  LEU93       0.1561
     70  C         18.6680   23.4780    7.9570 C.2    93  LEU93       0.2260
     71  O         19.3380   24.2940    8.5910 O.2    93  LEU93      -0.2867
     72  CB        18.2280   24.1310    5.5710 C.3    93  LEU93       0.0270
     73  CG        18.8040   25.5500    5.4840 C.3    93  LEU93       0.0019
     74  CD1       20.2030   25.5200    4.8640 C.3    93  LEU93       0.0001
     75  CD2       17.8810   26.4100    4.6250 C.3    93  LEU93       0.0001
     76  N         21.5750   22.3620    9.8330 N.3    96  VAL96      -0.1231
     77  CA        22.6670   23.3130    9.6060 C.3    96  VAL96       0.1692
     78  C         22.4760   24.5190   10.5210 C.2    96  VAL96       0.2591
     79  O         23.4340   25.0100   11.1230 O.2    96  VAL96      -0.2718
     80  CB        22.7160   23.7910    8.1450 C.3    96  VAL96       0.0266
     81  CG1       23.6840   24.9710    8.0110 C.3    96  VAL96       0.0020
     82  CG2       23.1900   22.6600    7.2480 C.3    96  VAL96       0.0020
     83  N         21.2390   24.9970   10.6430 N.am   97  LEU97      -0.1980
     84  CA        20.9860   26.1460   11.5080 C.3    97  LEU97       0.1596
     85  C         21.3440   25.8470   12.9650 C.2    97  LEU97       0.2287
     86  O         21.9290   26.6830   13.6560 O.2    97  LEU97      -0.2864
     87  CB        19.5190   26.5760   11.4050 C.3    97  LEU97       0.0297
     88  CG        19.0870   27.7520   12.2820 C.3    97  LEU97       0.0022
     89  CD1       19.9550   28.9760   11.9890 C.3    97  LEU97       0.0001
     90  CD2       17.6250   28.0550   12.0210 C.3    97  LEU97       0.0001
     91  N         23.5110   23.6390   14.0040 N.3    99  ARG99      -0.1231
     92  CA        24.9660   23.5300   14.0390 C.3    99  ARG99       0.1694
     93  C         25.6590   24.8820   13.9660 C.2    99  ARG99       0.2591
     94  O         26.7070   25.0820   14.5870 O.2    99  ARG99      -0.2718
     95  CB        25.4420   22.6310   12.9010 C.3    99  ARG99       0.0321
     96  CG        25.1550   21.1620   13.1500 C.3    99  ARG99       0.0489
     97  CD        25.5660   20.3000   11.9810 C.3    99  ARG99       0.2205
     98  NE        25.6640   18.9090   12.4090 N.pl3  99  ARG99      -0.0865
     99  CZ        26.3220   17.9670   11.7460 C.cat  99  ARG99       0.5346
    100  NH1       26.9320   18.2570   10.6020 N.pl3  99  ARG99       0.1354
    101  NH2       26.4180   16.7520   12.2640 N.pl3  99  ARG99       0.1354
    102  N         25.0690   25.8040   13.2130 N.am  100  MET100     -0.1979
    103  CA        25.6280   27.1440   13.0630 C.3   100  MET100      0.1605
    104  C         25.8250   27.7930   14.4280 C.2   100  MET100      0.2287
    105  O         26.7500   28.5840   14.6200 O.2   100  MET100     -0.2864
    106  CB        24.6920   28.0080   12.2170 C.3   100  MET100      0.0413
    107  CG        25.2400   29.3940   11.9170 C.3   100  MET100      0.0598
    108  SD        23.9700   30.4840   11.2480 S.3   100  MET100     -0.1393
    109  CE        23.2520   31.0890   12.7340 C.3   100  MET100      0.0692
    110  N         26.9950   26.5840   17.0440 N.3   102  ARG102     -0.1231
    111  CA        28.2790   26.1670   17.6150 C.3   102  ARG102      0.1694
    112  C         29.3690   27.1210   17.1410 C.2   102  ARG102      0.2591
    113  O         30.3910   27.2940   17.8080 O.2   102  ARG102     -0.2718
    114  CB        28.6670   24.7650   17.1280 C.3   102  ARG102      0.0321
    115  CG        27.6920   23.6660   17.4710 C.3   102  ARG102      0.0489
    116  CD        28.0360   22.3740   16.7150 C.3   102  ARG102      0.2205
    117  NE        29.2990   21.7490   17.1250 N.pl3 102  ARG102     -0.0865
    118  CZ        30.4030   21.7110   16.3800 C.cat 102  ARG102      0.5346
    119  NH1       30.4290   22.2690   15.1770 N.pl3 102  ARG102      0.1354
    120  NH2       31.4740   21.0730   16.8330 N.pl3 102  ARG102      0.1354
    121  N         29.1420   27.7140   15.9740 N.am  103  ALA103     -0.1980
    122  CA        30.1010   28.6190   15.3460 C.3   103  ALA103      0.1597
    123  C         29.6100   30.0610   15.3630 C.2   103  ALA103      0.2287
    124  O         29.8100   30.8060   14.4030 O.2   103  ALA103     -0.2864
    125  CB        30.3510   28.1650   13.9140 C.3   103  ALA103      0.0319
    126  N         29.3150   35.2820   13.1130 N.3   111  VAL111     -0.1231
    127  CA        29.2270   33.8730   12.7580 C.3   111  VAL111      0.1692
    128  C         30.4130   33.4610   11.8920 C.2   111  VAL111      0.2592
    129  O         30.9620   34.2690   11.1430 O.2   111  VAL111     -0.2718
    130  CB        27.9100   33.5870   11.9930 C.3   111  VAL111      0.0266
    131  CG1       27.9620   34.1940   10.5960 C.3   111  VAL111      0.0020
    132  CG2       27.6560   32.0880   11.9310 C.3   111  VAL111      0.0020
    133  N         30.8090   32.1990   12.0040 N.am  112  LEU112     -0.1966
    134  CA        31.9200   31.6830   11.2250 C.3   112  LEU112      0.1728
    135  C         31.4770   31.5460    9.7690 C.2   112  LEU112      0.2616
    136  O         30.5230   30.8250    9.4650 O.2   112  LEU112     -0.2715
    137  CB        32.3530   30.3240   11.7920 C.3   112  LEU112      0.0311
    138  CG        33.5980   29.6510   11.2140 C.3   112  LEU112      0.0022
    139  CD1       34.7780   30.6150   11.2050 C.3   112  LEU112      0.0001
    140  CD2       33.9210   28.4240   12.0600 C.3   112  LEU112      0.0001
    141  N         32.1640   32.2520    8.8760 N.am  113  PHE113     -0.1974
    142  CA        31.8520   32.2250    7.4530 C.3   113  PHE113      0.1639
    143  C         33.1550   32.2970    6.6700 C.2   113  PHE113      0.2290
    144  O         33.9180   33.2510    6.8110 O.2   113  PHE113     -0.2864
    145  CB        30.9600   33.4170    7.0780 C.3   113  PHE113      0.0560
    146  CG        30.5330   33.4260    5.6390 C.ar  113  PHE113     -0.0200
    147  CD1       29.5070   32.5980    5.1930 C.ar  113  PHE113     -0.0042
    148  CD2       31.1760   34.2480    4.7180 C.ar  113  PHE113     -0.0042
    149  CE1       29.1270   32.5930    3.8540 C.ar  113  PHE113     -0.0003
    150  CE2       30.8030   34.2500    3.3760 C.ar  113  PHE113     -0.0003
    151  CZ        29.7790   33.4200    2.9420 C.ar  113  PHE113     -0.0000
    152  N         27.2260   40.6440    5.3240 N.3   123  PHE123     -0.1241
    153  CA        26.2660   40.0910    4.3740 C.3   123  PHE123      0.1605
    154  C         25.3510   41.1330    3.7380 C.2   123  PHE123      0.2264
    155  O         24.3180   40.7890    3.1610 O.2   123  PHE123     -0.2867
    156  CB        25.4160   39.0340    5.0790 C.3   123  PHE123      0.0534
    157  CG        26.2190   37.8990    5.6440 C.ar  123  PHE123     -0.0203
    158  CD1       26.7530   36.9290    4.8050 C.ar  123  PHE123     -0.0042
    159  CD2       26.4780   37.8240    7.0080 C.ar  123  PHE123     -0.0042
    160  CE1       27.5390   35.8970    5.3140 C.ar  123  PHE123     -0.0003
    161  CE2       27.2640   36.7960    7.5310 C.ar  123  PHE123     -0.0003
    162  CZ        27.7960   35.8310    6.6800 C.ar  123  PHE123     -0.0000
    163  N         23.7430   40.7600    0.2370 N.3   126  LEU126     -0.1245
    164  CA        22.6830   39.7800    0.0260 C.3   126  LEU126      0.1561
    165  C         21.3250   40.4530   -0.1030 C.2   126  LEU126      0.2260
    166  O         20.4130   39.9100   -0.7240 O.2   126  LEU126     -0.2867
    167  CB        22.6230   38.7800    1.1830 C.3   126  LEU126      0.0270
    168  CG        23.7010   37.7030    1.2850 C.3   126  LEU126      0.0019
    169  CD1       23.3740   36.7940    2.4610 C.3   126  LEU126      0.0001
    170  CD2       23.7640   36.9010   -0.0060 C.3   126  LEU126      0.0001
    171  N         16.7220   37.8600    6.9140 N.3   131  LEU131     -0.1231
    172  CA        17.1150   36.4590    7.0410 C.3   131  LEU131      0.1693
    173  C         18.3190   36.3670    7.9720 C.2   131  LEU131      0.2591
    174  O         18.3710   35.5090    8.8530 O.2   131  LEU131     -0.2718
    175  CB        17.4830   35.8630    5.6790 C.3   131  LEU131      0.0284
    176  CG        18.1130   34.4640    5.7060 C.3   131  LEU131      0.0019
    177  CD1       17.1510   33.4670    6.3440 C.3   131  LEU131      0.0001
    178  CD2       18.4600   34.0410    4.2900 C.3   131  LEU131      0.0001
    179  N         19.2880   37.2570    7.7750 N.am  132  VAL132     -0.1980
    180  CA        20.4830   37.2630    8.6080 C.3   132  VAL132      0.1595
    181  C         20.1040   37.5580   10.0540 C.2   132  VAL132      0.2287
    182  O         20.5790   36.9020   10.9780 O.2   132  VAL132     -0.2864
    183  CB        21.5020   38.3240    8.1250 C.3   132  VAL132      0.0276
    184  CG1       22.7230   38.3260    9.0330 C.3   132  VAL132      0.0022
    185  CG2       21.9130   38.0280    6.6920 C.3   132  VAL132      0.0022
    186  N         18.3370   34.5780   11.6670 N.3   135  ALA135     -0.1231
    187  CA        19.2700   33.4830   11.9140 C.3   135  ALA135      0.1694
    188  C         20.1310   33.8120   13.1350 C.2   135  ALA135      0.2592
    189  O         20.3400   32.9720   14.0150 O.2   135  ALA135     -0.2718
    190  CB        20.1460   33.2620   10.6880 C.3   135  ALA135      0.0304
    191  N         20.6170   35.0510   13.1890 N.am  136  PHE136     -0.1976
    192  CA        21.4450   35.4990   14.3010 C.3   136  PHE136      0.1639
    193  C         20.6550   35.5460   15.6090 C.2   136  PHE136      0.2290
    194  O         21.1870   35.2200   16.6690 O.2   136  PHE136     -0.2864
    195  CB        22.0400   36.8790   13.9880 C.3   136  PHE136      0.0560
    196  CG        23.2840   36.8340   13.1310 C.ar  136  PHE136     -0.0200
    197  CD1       23.4660   35.8320   12.1820 C.ar  136  PHE136     -0.0042
    198  CD2       24.2660   37.8110   13.2620 C.ar  136  PHE136     -0.0042
    199  CE1       24.6080   35.8070   11.3790 C.ar  136  PHE136     -0.0003
    200  CE2       25.4090   37.7940   12.4640 C.ar  136  PHE136     -0.0003
    201  CZ        25.5810   36.7920   11.5200 C.ar  136  PHE136     -0.0000
    202  N         12.9340   30.1550   10.1140 N.3   212  VAL212     -0.1231
    203  CA        14.1530   30.7370    9.5590 C.3   212  VAL212      0.1692
    204  C         14.4920   30.0720    8.2320 C.2   212  VAL212      0.2592
    205  O         14.8250   30.7360    7.2530 O.2   212  VAL212     -0.2718
    206  CB        15.3570   30.5680   10.5140 C.3   212  VAL212      0.0266
    207  CG1       16.6390   31.0150    9.8180 C.3   212  VAL212      0.0020
    208  CG2       15.1340   31.3780   11.7810 C.3   212  VAL212      0.0020
    209  N         14.3930   28.7500    8.1940 N.am  213  CYS213     -0.1970
    210  CA        14.7120   28.0390    6.9740 C.3   213  CYS213      0.1712
    211  C         13.7130   28.3290    5.8590 C.2   213  CYS213      0.2296
    212  O         14.0810   28.3670    4.6880 O.2   213  CYS213     -0.2864
    213  CB        14.8340   26.5440    7.2710 C.3   213  CYS213      0.0983
    214  SG        16.2940   26.2000    8.3090 S.3   213  CYS213     -0.0798
    215  N         14.6860   31.4590    4.2390 N.3   216  HIS216     -0.1241
    216  CA        15.7880   31.2630    3.3030 C.3   216  HIS216      0.1621
    217  C         15.2010   30.9010    1.9450 C.2   216  HIS216      0.2264
    218  O         15.6450   31.3980    0.9100 O.2   216  HIS216     -0.2867
    219  CB        16.7260   30.1440    3.8020 C.3   216  HIS216      0.0745
    220  CG        17.6160   29.5690    2.7410 C.ar  216  HIS216      0.0817
    221  ND1       17.2530   28.4850    1.9670 N.ar  216  HIS216     -0.2268
    222  CD2       18.8500   29.9360    2.3100 C.ar  216  HIS216      0.1154
    223  CE1       18.2200   28.2120    1.1100 C.ar  216  HIS216      0.1986
    224  NE2       19.1980   29.0740    1.2970 N.ar  216  HIS216     -0.2212
@<TRIPOS>BOND
     1   166   165    2
     2    28    29    1
     3   165   164    1
     4   170   168    1
     5   164   163    1
     6   164   167    1
     7    30    29    1
     8    30    31    2
     9    29    32    1
    10    32    33    1
    11    34    35    1
    12   218   217    2
    13   223   224   ar
    14   223   221   ar
    15   167   168    1
    16   168   169    1
    17   224   222   ar
    18    42    40   am
    19   217   216    1
    20   221   220   ar
    21    35    36    1
    22    35    38    1
    23   222   220   ar
    24    45    44    1
    25    45    46    2
    26    43    36   am
    27    43    44    1
    28    47    49    1
    29    47    44    1
    30    47    48    1
    31   220   219    1
    32    39    40    1
    33    39    38    1
    34    50    48    1
    35    36    37    2
    36    40    41    2
    37   151   150   ar
    38   151   149   ar
    39   155   154    2
    40   216   219    1
    41   216   215    1
    42   150   148   ar
    43   154   153    1
    44   149   147   ar
    45   178   176    1
    46    51    52    1
    47   153   156    1
    48   153   152    1
    49    75    73    1
    50   212   211    2
    51   148   146   ar
    52   158   160   ar
    53   158   157   ar
    54    74    73    1
    55   156   157    1
    56    56    57    1
    57   147   146   ar
    58   160   162   ar
    59    53    52    1
    60    53    54    2
    61    73    72    1
    62    72    69    1
    63    52    55    1
    64   146   145    1
    65   157   159   ar
    66   175   176    1
    67   175   172    1
    68   176   177    1
    69   211   210    1
    70    65    63   ar
    71    65    66   ar
    72    67    66    1
    73    68    69    1
    74    63    61   ar
    75    14    13    2
    76    66    64   ar
    77    57    58    1
    78    57    60    1
    79    69    70    1
    80   143   144    2
    81   143   142    1
    82   162   161   ar
    83   185   183    1
    84    13    15   am
    85    13    12    1
    86   171   172    1
    87    61    60    1
    88    61    62   ar
    89   210   213    1
    90   210   209    1
    91   159   161   ar
    92   172   173    1
    93    64    62   ar
    94   145   142    1
    95    58    59    2
    96    82    80    1
    97   205   204    2
    98   213   214    1
    99   142   141    1
   100    12    11    1
   101   179   173   am
   102   179   180    1
   103    70    71    2
   104   173   174    2
   105    81    80    1
   106   183   180    1
   107   183   184    1
   108    80    77    1
   109   209   204   am
   110   204   203    1
   111    27    26    1
   112    11     8    1
   113   180   181    1
   114   141   135   am
   115     8     9    1
   116     8     7    1
   117    26    25   ar
   118    26    24   ar
   119   136   135    2
   120    25    23   ar
   121   203   202    1
   122   203   206    1
   123    77    76    1
   124    77    78    1
   125    10     9    2
   126   135   134    1
   127   207   206    1
   128   181   182    2
   129     9    16   am
   130     7     3   am
   131    24    22   ar
   132   206   208    1
   133    78    83   am
   134    78    79    2
   135    23    21   ar
   136   131   130    1
   137   100    99    1
   138    83    84    1
   139   190   187    1
   140     4     3    2
   141     3     2    1
   142   129   128    2
   143   139   138    1
   144   138   137    1
   145   138   140    1
   146   134   137    1
   147   134   133    1
   148    22    21   ar
   149   108   107    1
   150   108   109    1
   151    16    17    1
   152   199   201   ar
   153   199   197   ar
   154    87    84    1
   155    87    88    1
   156    21    20    1
   157    84    85    1
   158   201   200   ar
   159   186   187    1
   160    99   101    1
   161    99    98    2
   162     2     1    1
   163     2     5    1
   164   128   133   am
   165   128   127    1
   166   187   188    1
   167   107   106    1
   168   132   130    1
   169    97    98    1
   170    97    96    1
   171    89    88    1
   172   130   127    1
   173    90    88    1
   174   197   196   ar
   175   106   103    1
   176    17    20    1
   177    17    18    1
   178   200   198   ar
   179   127   126    1
   180    95    96    1
   181    95    92    1
   182    85    86    2
   183   103   102    1
   184   103   104    1
   185   196   198   ar
   186   196   195    1
   187   188   191   am
   188   188   189    2
   189   191   192    1
   190     5     6    1
   191   102    93   am
   192    18    19    2
   193   125   122    1
   194    93    92    1
   195    93    94    2
   196   195   192    1
   197    91    92    1
   198   192   193    1
   199   124   123    2
   200   104   105    2
   201   119   118    1
   202   122   123    1
   203   122   121    1
   204   193   194    2
   205   121   112   am
   206   118   120    1
   207   118   117    2
   208   116   117    1
   209   116   115    1
   210   110   111    1
   211   114   115    1
   212   114   111    1
   213   112   111    1
   214   112   113    2
