@<TRIPOS>MOLECULE
tmp/1nqcA00.pdb
 147 145 0 0 0
SMALL
GASTEIGER

@<TRIPOS>ATOM
      1  N        -10.8200    9.2390   43.0820 N.3    19  GLN19      -0.1231
      2  CA       -10.2780    8.3540   44.1030 C.3    19  GLN19       0.1698
      3  C        -11.2080    8.0280   45.2610 C.2    19  GLN19       0.2593
      4  O        -11.0230    7.0100   45.9270 O.2    19  GLN19      -0.2718
      5  CB        -8.9440    8.8940   44.6490 C.3    19  GLN19       0.0381
      6  CG        -8.9780   10.2980   45.1760 C.3    19  GLN19       0.0905
      7  CD        -7.5740   10.7900   45.5750 C.2    19  GLN19       0.2608
      8  OE1       -6.8960   11.4760   44.6670 O.2    19  GLN19      -0.2717
      9  NE2       -7.1220   10.5460   46.6860 N.am   19  GLN19      -0.0878
     10  N        -12.2080    8.8650   45.4990 N.am   20  GLY20      -0.1942
     11  CA       -13.1060    8.5900   46.6070 C.3    20  GLY20       0.2014
     12  C        -12.4200    8.8270   47.9470 C.2    20  GLY20       0.2640
     13  O        -11.5920    9.7240   48.0650 O.2    20  GLY20      -0.2714
     14  N        -12.7360    8.0130   48.9510 N.am   21  SER21      -0.1935
     15  CA       -12.1520    8.1890   50.2830 C.3    21  SER21       0.2055
     16  C        -10.7880    7.5360   50.4720 C.2    21  SER21       0.2643
     17  O        -10.2790    7.4620   51.5980 O.2    21  SER21      -0.2714
     18  CB       -13.1190    7.6620   51.3490 C.3    21  SER21       0.2130
     19  OG       -13.5060    6.3350   51.0560 O.3    21  SER21      -0.2179
     20  N        -10.1970    7.0850   49.3720 N.am   22  CYS22      -0.1953
     21  CA        -8.8970    6.4110   49.3750 C.3    22  CYS22       0.1843
     22  C         -7.7980    7.3880   48.9410 C.2    22  CYS22       0.2626
     23  O         -7.9520    8.0980   47.9440 O.2    22  CYS22      -0.2714
     24  CB        -8.9750    5.2140   48.4130 C.3    22  CYS22       0.0997
     25  SG        -7.4240    4.3570   47.9990 S.3    22  CYS22      -0.0797
     26  N         -6.6890    7.4170   49.6830 N.am   23  GLY23      -0.1954
     27  CA        -5.5970    8.3260   49.3540 C.3    23  GLY23       0.1869
     28  C         -4.6740    7.7290   48.3020 C.2    23  GLY23       0.2309
     29  O         -3.4670    7.5150   48.5470 O.2    23  GLY23      -0.2863
     30  N         -4.0380    9.1690   45.3560 N.3    25  CYS25      -0.1221
     31  CA        -3.5860   10.2180   44.4440 C.3    25  CYS25       0.1808
     32  C         -2.2610    9.8960   43.7470 C.2    25  CYS25       0.2601
     33  O         -2.0720   10.1660   42.5490 O.2    25  CYS25      -0.2717
     34  CB        -3.4350   11.5380   45.1720 C.3    25  CYS25       0.0970
     35  SG        -2.3560   11.6060   46.4380 S.3    25  CYS25      -0.0800
     36  N         -1.3410    9.3320   44.5230 N.am   26  TRP26      -0.1976
     37  CA        -0.0160    8.9770   44.0190 C.3    26  TRP26       0.1640
     38  C         -0.1160    7.9220   42.9200 C.2    26  TRP26       0.2290
     39  O          0.6250    7.9650   41.9400 O.2    26  TRP26      -0.2864
     40  CB         0.8690    8.4470   45.1670 C.3    26  TRP26       0.0576
     41  CG         0.3120    7.2070   45.8510 C.ar   26  TRP26       0.0006
     42  CD1       -0.6410    7.1650   46.8390 C.ar   26  TRP26       0.0946
     43  CD2        0.6520    5.8400   45.5700 C.ar   26  TRP26       0.0152
     44  NE1       -0.9090    5.8570   47.1840 N.ar   26  TRP26      -0.2442
     45  CE2       -0.1290    5.0280   46.4240 C.ar   26  TRP26       0.0810
     46  CE3        1.5400    5.2210   44.6780 C.ar   26  TRP26       0.0012
     47  CZ2       -0.0460    3.6280   46.4160 C.ar   26  TRP26       0.0191
     48  CZ3        1.6240    3.8240   44.6700 C.ar   26  TRP26       0.0001
     49  CH2        0.8290    3.0470   45.5410 C.ar   26  TRP26       0.0015
     50  N          7.8680    1.5810   50.1040 N.3    62  GLY62      -0.1225
     51  CA         7.5880    2.6870   50.9990 C.3    62  GLY62       0.1811
     52  C          6.1640    3.2040   50.8810 C.2    62  GLY62       0.2280
     53  O          5.8390    4.2320   51.4680 O.2    62  GLY62      -0.2866
     54  N          1.8490    3.0360   51.1870 N.3    64  LYS64      -0.1245
     55  CA         0.8360    2.5920   52.1300 C.3    64  LYS64       0.1561
     56  C         -0.5710    2.4810   51.5450 C.2    64  LYS64       0.2260
     57  O         -1.5630    2.6950   52.2510 O.2    64  LYS64      -0.2867
     58  CB         0.8290    3.5380   53.3280 C.3    64  LYS64       0.0271
     59  CG         2.1910    3.6500   54.0210 C.3    64  LYS64       0.0035
     60  CD         2.1490    4.6890   55.1250 C.3    64  LYS64       0.0206
     61  CE         3.4820    4.7750   55.8720 C.3    64  LYS64       0.1093
     62  NZ         3.3820    5.7130   57.0420 N.3    64  LYS64      -0.1314
     63  N         -4.0720    2.9590   50.3530 N.3    66  CYS66      -0.1221
     64  CA        -5.0440    4.0260   50.5580 C.3    66  CYS66       0.1808
     65  C         -4.6010    5.0800   51.5650 C.2    66  CYS66       0.2601
     66  O         -5.2740    6.1000   51.7360 O.2    66  CYS66      -0.2717
     67  CB        -6.3980    3.4480   50.9790 C.3    66  CYS66       0.0970
     68  SG        -7.2160    2.5120   49.6660 S.3    66  CYS66      -0.0800
     69  N         -3.4820    4.8410   52.2410 N.am   67  ASN67      -0.1960
     70  CA        -2.9850    5.8280   53.1820 C.3    67  ASN67       0.1819
     71  C         -1.8030    6.6190   52.6280 C.2    67  ASN67       0.2622
     72  O         -1.0900    7.2770   53.3830 O.2    67  ASN67      -0.2715
     73  CB        -2.6070    5.1820   54.5160 C.3    67  ASN67       0.1195
     74  CG        -3.8160    4.8730   55.3660 C.2    67  ASN67       0.2630
     75  OD1       -4.5660    5.7750   55.7550 O.2    67  ASN67      -0.2716
     76  ND2       -4.0150    3.5960   55.6670 N.am   67  ASN67      -0.0877
     77  N         -1.5840    6.5460   51.3140 N.am   68  GLY68      -0.1940
     78  CA        -0.5060    7.3270   50.7210 C.3    68  GLY68       0.2014
     79  C          0.6470    6.5760   50.0860 C.2    68  GLY68       0.2639
     80  O          0.9170    5.4180   50.4160 O.2    68  GLY68      -0.2714
     81  N          1.3610    7.2560   49.1920 N.am   69  GLY69      -0.1939
     82  CA         2.4800    6.6200   48.5130 C.3    69  GLY69       0.2014
     83  C          3.2820    7.6030   47.6870 C.2    69  GLY69       0.2639
     84  O          3.0390    8.8010   47.7460 O.2    69  GLY69      -0.2714
     85  N          4.2300    7.0920   46.9020 N.am   70  PHE70      -0.1959
     86  CA         5.0900    7.9390   46.0860 C.3    70  PHE70       0.1771
     87  C          5.0150    7.5520   44.6220 C.2    70  PHE70       0.2619
     88  O          4.9820    6.3640   44.2980 O.2    70  PHE70      -0.2715
     89  CB         6.5450    7.7860   46.5420 C.3    70  PHE70       0.0574
     90  CG         6.7570    8.1000   47.9890 C.ar   70  PHE70      -0.0200
     91  CD1        6.7510    9.4140   48.4310 C.ar   70  PHE70      -0.0042
     92  CD2        6.9490    7.0820   48.9100 C.ar   70  PHE70      -0.0042
     93  CE1        6.9390    9.7180   49.7890 C.ar   70  PHE70      -0.0003
     94  CE2        7.1380    7.3670   50.2680 C.ar   70  PHE70      -0.0003
     95  CZ         7.1350    8.6880   50.7090 C.ar   70  PHE70      -0.0000
     96  N          5.0250    8.5430   43.7380 N.am   71  MET71      -0.1977
     97  CA         4.9900    8.2300   42.3130 C.3    71  MET71       0.1605
     98  C          6.3010    7.5660   41.8710 C.2    71  MET71       0.2287
     99  O          6.2960    6.6430   41.0600 O.2    71  MET71      -0.2864
    100  CB         4.7590    9.4970   41.4800 C.3    71  MET71       0.0413
    101  CG         3.3520   10.0940   41.6220 C.3    71  MET71       0.0598
    102  SD         3.0840   11.0370   43.1430 S.3    71  MET71      -0.1393
    103  CE         3.9550   12.6160   42.7000 C.3    71  MET71       0.0692
    104  N          4.1070   16.6910   43.1180 N.3   137  GLY137     -0.1225
    105  CA         3.4270   16.7380   44.3860 C.3   137  GLY137      0.1811
    106  C          3.1030   18.2110   44.5870 C.2   137  GLY137      0.2280
    107  O          3.8960   19.0750   44.1980 O.2   137  GLY137     -0.2866
    108  N          4.8720   19.7770   49.9890 N.3   162  VAL162     -0.1231
    109  CA         3.8390   19.0400   49.2760 C.3   162  VAL162      0.1692
    110  C          3.2570   17.7880   49.9250 C.2   162  VAL162      0.2592
    111  O          3.9180   17.1010   50.7000 O.2   162  VAL162     -0.2718
    112  CB         4.3700   18.7110   47.8720 C.3   162  VAL162      0.0266
    113  CG1        4.8060   20.0110   47.1750 C.3   162  VAL162      0.0020
    114  CG2        5.5460   17.7600   47.9720 C.3   162  VAL162      0.0020
    115  N          2.0150   17.4640   49.5630 N.am  163  ASN163     -0.1960
    116  CA         1.3570   16.3250   50.1850 C.3   163  ASN163      0.1819
    117  C          0.3230   15.6420   49.2860 C.2   163  ASN163      0.2621
    118  O         -0.2780   14.6550   49.6820 O.2   163  ASN163     -0.2715
    119  CB         0.6760   16.8400   51.4460 C.3   163  ASN163      0.1195
    120  CG        -0.0160   18.1730   51.1920 C.2   163  ASN163      0.2630
    121  OD1       -0.9230   18.2410   50.3790 O.2   163  ASN163     -0.2716
    122  ND2        0.4440   19.2450   51.8540 N.am  163  ASN163     -0.0877
    123  N          0.1390   16.1560   48.0730 N.am  164  HIS164     -0.1959
    124  CA        -0.8660   15.6050   47.1550 C.3   164  HIS164      0.1787
    125  C         -0.2640   15.3860   45.7620 C.2   164  HIS164      0.2620
    126  O          0.2650   16.3070   45.1490 O.2   164  HIS164     -0.2715
    127  CB        -2.0540   16.5790   47.1160 C.3   164  HIS164      0.0785
    128  CG        -3.1610   16.1710   46.1950 C.ar  164  HIS164      0.0821
    129  ND1       -3.7470   14.9230   46.2340 N.ar  164  HIS164     -0.2267
    130  CD2       -3.7980   16.8580   45.2150 C.ar  164  HIS164      0.1154
    131  CE1       -4.6950   14.8550   45.3140 C.ar  164  HIS164      0.1986
    132  NE2       -4.7450   16.0150   44.6820 N.ar  164  HIS164     -0.2212
    133  N         -0.3690   14.1640   45.2610 N.am  165  GLY165     -0.1954
    134  CA         0.1920   13.8520   43.9570 C.3   165  GLY165      0.1869
    135  C         -0.7850   14.0800   42.8230 C.2   165  GLY165      0.2309
    136  O         -1.9040   13.5730   42.8640 O.2   165  GLY165     -0.2863
    137  N          9.0290   18.1660   43.5810 N.3   211  PHE211     -0.1241
    138  CA         9.4350   16.7920   43.2760 C.3   211  PHE211      0.1605
    139  C          8.8040   16.2340   42.0010 C.2   211  PHE211      0.2264
    140  O          7.9660   15.3290   42.0620 O.2   211  PHE211     -0.2867
    141  CB         9.0930   15.8840   44.4670 C.3   211  PHE211      0.0534
    142  CG         9.7580   16.3040   45.7580 C.ar  211  PHE211     -0.0203
    143  CD1       11.1340   16.1430   45.9360 C.ar  211  PHE211     -0.0042
    144  CD2        9.0180   16.9060   46.7730 C.ar  211  PHE211     -0.0042
    145  CE1       11.7630   16.5810   47.1080 C.ar  211  PHE211     -0.0003
    146  CE2        9.6300   17.3520   47.9510 C.ar  211  PHE211     -0.0003
    147  CZ        11.0190   17.1870   48.1170 C.ar  211  PHE211     -0.0000
@<TRIPOS>BOND
     1    99    98    2
     2   100   101    1
     3   100    97    1
     4   101   102    1
     5    98    97    1
     6    39    38    2
     7   139   140    2
     8   139   138    1
     9    97    96    1
    10    33    32    2
    11   103   102    1
    12   135   136    2
    13   135   134    1
    14    38    37    1
    15     1     2    1
    16   104   105    1
    17   138   137    1
    18   138   141    1
    19    96    87   am
    20    32    31    1
    21    32    36   am
    22   134   133    1
    23    37    36    1
    24    37    40    1
    25     2     5    1
    26     2     3    1
    27   107   106    2
    28    88    87    2
    29   105   106    1
    30    31    34    1
    31    31    30    1
    32   141   142    1
    33    87    86    1
    34     5     6    1
    35     8     7    2
    36    48    46   ar
    37    48    49   ar
    38    46    43   ar
    39   132   130   ar
    40   132   131   ar
    41   126   125    2
    42    40    41    1
    43    34    35    1
    44     6     7    1
    45   130   128   ar
    46   133   125   am
    47     3    10   am
    48     3     4    2
    49   131   129   ar
    50    10    11    1
    51    49    47   ar
    52    43    41   ar
    53    43    45   ar
    54     7     9   am
    55   142   143   ar
    56   142   144   ar
    57   125   124    1
    58    41    42   ar
    59   143   145   ar
    60    86    89    1
    61    86    85    1
    62   128   129   ar
    63   128   127    1
    64    47    45   ar
    65    45    44   ar
    66    89    90    1
    67    11    12    1
    68   144   146   ar
    69    42    44   ar
    70    85    83   am
    71   145   147   ar
    72   127   124    1
    73   124   123    1
    74   113   112    1
    75    83    84    2
    76    83    82    1
    77   112   114    1
    78   112   109    1
    79    23    22    2
    80    12    13    2
    81    12    14   am
    82   146   147   ar
    83    90    91   ar
    84    90    92   ar
    85    25    24    1
    86    25    68    1
    87   123   117   am
    88    28    29    2
    89    28    27    1
    90    24    21    1
    91    91    93   ar
    92    82    81    1
    93    92    94   ar
    94    22    21    1
    95    22    26   am
    96    14    15    1
    97    81    79   am
    98   109   110    1
    99   109   108    1
   100   117   118    2
   101   117   116    1
   102    27    26    1
   103    20    21    1
   104    20    16   am
   105   115   110   am
   106   115   116    1
   107    68    67    1
   108    93    95   ar
   109   110   111    2
   110    79    80    2
   111    79    78    1
   112    50    51    1
   113   116   119    1
   114    94    95   ar
   115    15    16    1
   116    15    18    1
   117    63    64    1
   118   121   120    2
   119    16    17    2
   120    64    67    1
   121    64    65    1
   122    78    77    1
   123    52    51    1
   124    52    53    2
   125    19    18    1
   126    54    55    1
   127   120   119    1
   128   120   122   am
   129    77    71   am
   130    56    55    1
   131    56    57    2
   132    65    66    2
   133    65    69   am
   134    55    58    1
   135    69    70    1
   136    71    70    1
   137    71    72    2
   138    70    73    1
   139    58    59    1
   140    59    60    1
   141    73    74    1
   142    60    61    1
   143    74    76   am
   144    74    75    2
   145    61    62    1
