@<TRIPOS>MOLECULE
tmp/1nqeA03.pdb
 114 113 0 0 0
SMALL
GASTEIGER

@<TRIPOS>ATOM
      1  N          6.0810   53.0900   42.6620 N.3   265  SER265     -0.1202
      2  CA         6.1340   51.9790   41.7520 C.3   265  SER265      0.2020
      3  C          7.4150   52.0900   40.9880 C.2   265  SER265      0.2618
      4  O          8.0710   53.1210   40.9910 O.2   265  SER265     -0.2717
      5  CB         4.9150   51.9380   40.8310 C.3   265  SER265      0.2103
      6  OG         4.9400   53.0040   39.8920 O.3   265  SER265     -0.2182
      7  N          7.8020   50.9870   40.3940 N.am  266  ILE266     -0.1979
      8  CA         8.9160   50.9500   39.4780 C.3   266  ILE266      0.1595
      9  C          8.4890   50.0720   38.3330 C.2   266  ILE266      0.2287
     10  O          7.7060   49.1270   38.5030 O.2   266  ILE266     -0.2864
     11  CB        10.1440   50.4090   40.1990 C.3   266  ILE266      0.0276
     12  CG1       11.3390   50.3830   39.2650 C.3   266  ILE266      0.0022
     13  CG2        9.8760   49.0310   40.6840 C.3   266  ILE266      0.0022
     14  CD1       12.6120   49.9860   40.0070 C.3   266  ILE266      0.0001
     15  N         12.8890   52.2810   31.7520 N.3   297  LEU297     -0.1231
     16  CA        12.6490   52.1650   33.1770 C.3   297  LEU297      0.1693
     17  C         11.7560   53.3850   33.6140 C.2   297  LEU297      0.2593
     18  O         11.9510   54.4610   33.1090 O.2   297  LEU297     -0.2718
     19  CB        14.0260   52.2830   33.8100 C.3   297  LEU297      0.0284
     20  CG        14.3420   52.1270   35.2900 C.3   297  LEU297      0.0019
     21  CD1       13.9100   50.7900   35.7770 C.3   297  LEU297      0.0001
     22  CD2       15.8660   52.2870   35.4540 C.3   297  LEU297      0.0001
     23  N         10.7930   53.1670   34.5150 N.am  298  THR298     -0.1939
     24  CA         9.9780   54.2380   35.1280 C.3   298  THR298      0.2028
     25  C         10.0210   54.1370   36.6230 C.2   298  THR298      0.2643
     26  O         10.3010   53.0810   37.2000 O.2   298  THR298     -0.2714
     27  CB         8.4720   54.1220   34.7590 C.3   298  THR298      0.1808
     28  OG1        7.9780   52.8320   35.1500 O.3   298  THR298     -0.2208
     29  CG2        8.2500   54.1790   33.2170 C.3   298  THR298      0.0379
     30  N          9.6810   55.2520   37.2670 N.am  299  GLY299     -0.1939
     31  CA         9.5620   55.2900   38.7010 C.3   299  GLY299      0.2014
     32  C          8.6510   56.4000   39.1990 C.2   299  GLY299      0.2639
     33  O          8.5800   57.4680   38.6200 O.2   299  GLY299     -0.2714
     34  N          7.9920   56.1140   40.3110 N.am  300  LEU300     -0.1963
     35  CA         7.1420   57.0490   41.0190 C.3   300  LEU300      0.1728
     36  C          7.4200   56.7700   42.5000 C.2   300  LEU300      0.2616
     37  O          7.5100   55.6020   42.9130 O.2   300  LEU300     -0.2715
     38  CB         5.6890   56.7450   40.6660 C.3   300  LEU300      0.0311
     39  CG         4.5440   57.6820   41.0200 C.3   300  LEU300      0.0022
     40  CD1        3.5900   56.9210   41.8730 C.3   300  LEU300      0.0001
     41  CD2        5.0190   58.9680   41.7070 C.3   300  LEU300      0.0001
     42  N          7.6460   57.8170   43.2880 N.am  301  GLN301     -0.1977
     43  CA         7.7090   57.6600   44.7670 C.3   301  GLN301      0.1601
     44  C          7.0400   58.8570   45.4610 C.2   301  GLN301      0.2287
     45  O          7.1480   59.9670   44.9930 O.2   301  GLN301     -0.2864
     46  CB         9.1700   57.4930   45.2400 C.3   301  GLN301      0.0394
     47  CG         9.3660   56.5560   46.4630 C.3   301  GLN301      0.0908
     48  CD         8.2750   55.4680   46.6140 C.2   301  GLN301      0.2608
     49  OE1        7.4200   55.5510   47.5060 O.2   301  GLN301     -0.2717
     50  NE2        8.3080   54.4510   45.7400 N.am  301  GLN301     -0.0878
     51  N          8.0600   62.2830   43.4010 N.3   308  PHE308     -0.1227
     52  CA         9.1530   62.2010   42.4210 C.3   308  PHE308      0.1736
     53  C          8.7600   61.1900   41.3460 C.2   308  PHE308      0.2595
     54  O          8.2160   60.1330   41.6360 O.2   308  PHE308     -0.2718
     55  CB        10.4690   61.7930   43.0580 C.3   308  PHE308      0.0547
     56  CG        10.9160   62.6830   44.1870 C.ar  308  PHE308     -0.0202
     57  CD1       10.5000   62.4360   45.4830 C.ar  308  PHE308     -0.0042
     58  CD2       11.7340   63.7690   43.9480 C.ar  308  PHE308     -0.0042
     59  CE1       10.9040   63.2510   46.5260 C.ar  308  PHE308     -0.0003
     60  CE2       12.1420   64.6140   44.9950 C.ar  308  PHE308     -0.0003
     61  CZ        11.7340   64.3290   46.2990 C.ar  308  PHE308     -0.0000
     62  N          8.9450   61.5630   40.0820 N.am  309  GLU309     -0.1965
     63  CA         8.4860   60.7840   38.9700 C.3   309  GLU309      0.1733
     64  C          9.5190   60.9030   37.8580 C.2   309  GLU309      0.2617
     65  O         10.1350   61.9510   37.6610 O.2   309  GLU309     -0.2715
     66  CB         7.0800   61.2570   38.5260 C.3   309  GLU309      0.0429
     67  CG         6.4190   60.4010   37.4280 C.3   309  GLU309      0.1163
     68  CD         5.1230   61.0200   36.8930 C.2   309  GLU309      0.3649
     69  OE1        4.5390   60.5010   35.8940 O.co2 309  GLU309     -0.2457
     70  OE2        4.6850   62.0220   37.4560 O.co2 309  GLU309     -0.2457
     71  N          9.7620   59.7970   37.1630 N.am  310  GLY310     -0.1940
     72  CA        10.8620   59.7750   36.2080 C.3   310  GLY310      0.2014
     73  C         10.8060   58.5860   35.2690 C.2   310  GLY310      0.2639
     74  O         10.0130   57.6580   35.4820 O.2   310  GLY310     -0.2714
     75  N         11.5650   58.6980   34.1740 N.am  311  ALA311     -0.1963
     76  CA        11.6360   57.6690   33.1590 C.3   311  ALA311      0.1728
     77  C         12.9140   57.8670   32.3990 C.2   311  ALA311      0.2616
     78  O         13.4700   58.9670   32.3760 O.2   311  ALA311     -0.2715
     79  CB        10.4340   57.6960   32.2030 C.3   311  ALA311      0.0334
     80  N         13.4140   56.7730   31.8140 N.am  312  ALA312     -0.1977
     81  CA        14.5930   56.8490   30.9800 C.3   312  ALA312      0.1597
     82  C         14.5510   55.6960   29.9940 C.2   312  ALA312      0.2287
     83  O         14.0890   54.6120   30.3070 O.2   312  ALA312     -0.2864
     84  CB        15.8440   56.8190   31.8040 C.3   312  ALA312      0.0319
     85  N         15.5440   60.9010   28.6530 N.3   326  TRP326     -0.1227
     86  CA        15.1620   60.8020   30.0410 C.3   326  TRP326      0.1737
     87  C         14.3320   62.0030   30.4990 C.2   326  TRP326      0.2595
     88  O         14.3510   63.0590   29.8740 O.2   326  TRP326     -0.2718
     89  CB        16.3630   60.6820   30.9400 C.3   326  TRP326      0.0564
     90  CG        17.2040   61.9010   31.0190 C.ar  326  TRP326      0.0003
     91  CD1       17.9470   62.4470   30.0260 C.ar  326  TRP326      0.0946
     92  CD2       17.4020   62.7270   32.1650 C.ar  326  TRP326      0.0152
     93  NE1       18.6060   63.5590   30.4790 N.ar  326  TRP326     -0.2442
     94  CE2       18.2710   63.7610   31.7900 C.ar  326  TRP326      0.0810
     95  CE3       16.9280   62.6940   33.4780 C.ar  326  TRP326      0.0012
     96  CZ2       18.6660   64.7600   32.6660 C.ar  326  TRP326      0.0191
     97  CZ3       17.3200   63.7090   34.3480 C.ar  326  TRP326      0.0001
     98  CH2       18.1840   64.7040   33.9400 C.ar  326  TRP326      0.0015
     99  N         13.5850   61.7960   31.5750 N.am  327  GLN327     -0.1965
    100  CA        12.8500   62.8840   32.2280 C.3   327  GLN327      0.1733
    101  C         12.6780   62.6480   33.7340 C.2   327  GLN327      0.2617
    102  O         12.6950   61.4990   34.2250 O.2   327  GLN327     -0.2715
    103  CB        11.4810   63.0760   31.5540 C.3   327  GLN327      0.0408
    104  CG        10.5780   61.8840   31.6820 C.3   327  GLN327      0.0908
    105  CD         9.4040   61.9160   30.7290 C.2   327  GLN327      0.2608
    106  OE1        8.2660   62.1750   31.1450 O.2   327  GLN327     -0.2717
    107  NE2        9.6590   61.6480   29.4560 N.am  327  GLN327     -0.0878
    108  N         12.5490   63.7490   34.4610 N.am  328  THR328     -0.1951
    109  CA        12.3640   63.7470   35.9070 C.3   328  THR328      0.1897
    110  C         11.4950   64.9460   36.3250 C.2   328  THR328      0.2313
    111  O         11.6490   66.0340   35.7980 O.2   328  THR328     -0.2863
    112  CB        13.7130   63.8960   36.6330 C.3   328  THR328      0.1794
    113  OG1       14.5980   62.8430   36.2430 O.3   328  THR328     -0.2208
    114  CG2       13.4890   63.6530   38.0990 C.3   328  THR328      0.0378
@<TRIPOS>BOND
     1    85    86    1
     2   107   105   am
     3    88    87    2
     4    82    83    2
     5    82    81    1
     6    91    93   ar
     7    91    90   ar
     8    86    87    1
     9    86    89    1
    10    93    94   ar
    11    87    99   am
    12   105   106    2
    13   105   104    1
    14    89    90    1
    15    81    84    1
    16    81    80    1
    17    90    92   ar
    18   103   104    1
    19   103   100    1
    20    99   100    1
    21    15    16    1
    22    94    92   ar
    23    94    96   ar
    24    80    77   am
    25    92    95   ar
    26    79    76    1
    27   100   101    1
    28    78    77    2
    29    77    76    1
    30    96    98   ar
    31    18    17    2
    32    76    75    1
    33    16    17    1
    34    16    19    1
    35    29    27    1
    36    95    97   ar
    37    17    23   am
    38   101   102    2
    39   101   108   am
    40    19    20    1
    41    98    97   ar
    42    75    73   am
    43   108   109    1
    44    23    24    1
    45    27    24    1
    46    27    28    1
    47    24    25    1
    48    73    74    2
    49    73    72    1
    50    20    22    1
    51    20    21    1
    52   111   110    2
    53    69    68   ar
    54   109   110    1
    55   109   112    1
    56    72    71    1
    57   113   112    1
    58    25    26    2
    59    25    30   am
    60   112   114    1
    61    68    67    1
    62    68    70   ar
    63    71    64   am
    64    30    31    1
    65    67    66    1
    66    65    64    2
    67    64    63    1
    68     9    10    2
    69     9     8    1
    70    66    63    1
    71    33    32    2
    72    31    32    1
    73    63    62    1
    74    32    34   am
    75    12    14    1
    76    12    11    1
    77     8    11    1
    78     8     7    1
    79     6     5    1
    80    62    53   am
    81    11    13    1
    82    34    35    1
    83     7     3   am
    84    38    35    1
    85    38    39    1
    86     5     2    1
    87     3     4    2
    88     3     2    1
    89    35    36    1
    90    39    41    1
    91    39    40    1
    92    53    54    2
    93    53    52    1
    94     2     1    1
    95    52    55    1
    96    52    51    1
    97    36    37    2
    98    36    42   am
    99    55    56    1
   100    42    43    1
   101    58    56   ar
   102    58    60   ar
   103    56    57   ar
   104    43    46    1
   105    43    44    1
   106    45    44    2
   107    60    61   ar
   108    46    47    1
   109    57    59   ar
   110    50    48   am
   111    61    59   ar
   112    47    48    1
   113    48    49    2
