@<TRIPOS>MOLECULE
tmp/1nqeA00.pdb
 91 89 0 0 0
SMALL
GASTEIGER

@<TRIPOS>ATOM
      1  N          9.5740   48.6680   34.0050 N.3   268  ALA268     -0.1245
      2  CA        10.5030   48.5660   32.8980 C.3   268  ALA268      0.1562
      3  C          9.7940   47.8920   31.7470 C.2   268  ALA268      0.2260
      4  O          8.8330   47.1740   31.9400 O.2   268  ALA268     -0.2867
      5  CB        11.7500   47.7030   33.2950 C.3   268  ALA268      0.0290
      6  N         14.3480   50.1440   25.1700 N.3   295  ILE295     -0.1231
      7  CA        14.2180   49.6350   26.4990 C.3   295  ILE295      0.1692
      8  C         14.1320   50.7950   27.4570 C.2   295  ILE295      0.2592
      9  O         14.8430   51.7800   27.3220 O.2   295  ILE295     -0.2718
     10  CB        15.4470   48.6990   26.8380 C.3   295  ILE295      0.0266
     11  CG1       15.3670   48.2530   28.2770 C.3   295  ILE295      0.0019
     12  CG2       16.7570   49.4060   26.5630 C.3   295  ILE295      0.0020
     13  CD1       16.2160   47.0050   28.5910 C.3   295  ILE295      0.0001
     14  N         13.2890   50.6720   28.4700 N.am  296  TYR296     -0.1962
     15  CA        13.1130   51.7780   29.4210 C.3   296  TYR296      0.1771
     16  C         12.7580   51.3140   30.8520 C.2   296  TYR296      0.2619
     17  O         12.3580   50.1700   31.1080 O.2   296  TYR296     -0.2715
     18  CB        12.0030   52.7370   28.9220 C.3   296  TYR296      0.0574
     19  CG        10.6850   52.0330   28.9470 C.ar  296  TYR296     -0.0198
     20  CD1        9.8290   52.1360   30.0660 C.ar  296  TYR296     -0.0009
     21  CD2       10.3210   51.2290   27.9390 C.ar  296  TYR296     -0.0009
     22  CE1        8.6930   51.4150   30.1290 C.ar  296  TYR296      0.0417
     23  CE2        9.1470   50.5100   27.9920 C.ar  296  TYR296      0.0417
     24  CZ         8.3540   50.5940   29.0850 C.ar  296  TYR296      0.1957
     25  OH         7.1790   49.8670   29.0910 O.3   296  TYR296     -0.2866
     26  N         12.8890   52.2810   31.7520 N.am  297  LEU297     -0.1977
     27  CA        12.6490   52.1650   33.1770 C.3   297  LEU297      0.1596
     28  C         11.7560   53.3850   33.6140 C.2   297  LEU297      0.2287
     29  O         11.9510   54.4610   33.1090 O.2   297  LEU297     -0.2864
     30  CB        14.0260   52.2830   33.8100 C.3   297  LEU297      0.0297
     31  CG        14.3420   52.1270   35.2900 C.3   297  LEU297      0.0022
     32  CD1       13.9100   50.7900   35.7770 C.3   297  LEU297      0.0001
     33  CD2       15.8660   52.2870   35.4540 C.3   297  LEU297      0.0001
     34  N         13.4140   56.7730   31.8140 N.3   312  ALA312     -0.1231
     35  CA        14.5930   56.8490   30.9800 C.3   312  ALA312      0.1694
     36  C         14.5510   55.6960   29.9940 C.2   312  ALA312      0.2592
     37  O         14.0890   54.6120   30.3070 O.2   312  ALA312     -0.2718
     38  CB        15.8440   56.8190   31.8040 C.3   312  ALA312      0.0304
     39  N         14.9710   55.9730   28.7680 N.am  313  ARG313     -0.1966
     40  CA        14.7910   55.0380   27.6570 C.3   313  ARG313      0.1729
     41  C         16.0320   55.0500   26.7720 C.2   313  ARG313      0.2616
     42  O         16.7130   56.0750   26.6380 O.2   313  ARG313     -0.2715
     43  CB        13.5380   55.3450   26.8750 C.3   313  ARG313      0.0348
     44  CG        13.2650   54.4480   25.6460 C.3   313  ARG313      0.0492
     45  CD        11.8330   54.4760   25.1450 C.3   313  ARG313      0.2205
     46  NE        11.7210   53.9320   23.7860 N.pl3 313  ARG313     -0.0865
     47  CZ        10.7560   53.1370   23.3570 C.cat 313  ARG313      0.5346
     48  NH1        9.7710   52.7900   24.1520 N.pl3 313  ARG313      0.1354
     49  NH2       10.7950   52.6710   22.1100 N.pl3 313  ARG313      0.1354
     50  N         16.3810   53.8670   26.2770 N.am  314  SER314     -0.1950
     51  CA        17.3600   53.7520   25.1790 C.3   314  SER314      0.1924
     52  C         16.7400   53.0760   23.9770 C.2   314  SER314      0.2314
     53  O         16.1770   51.9850   24.0880 O.2   314  SER314     -0.2863
     54  CB        18.6730   53.0710   25.6460 C.3   314  SER314      0.2116
     55  OG        19.7310   53.3790   24.7770 O.3   314  SER314     -0.2180
     56  N         21.7190   54.4750   18.0310 N.3   322  ARG322     -0.1245
     57  CA        21.3400   54.5860   19.4110 C.3   322  ARG322      0.1563
     58  C         20.9690   56.0150   19.8240 C.2   322  ARG322      0.2260
     59  O         21.7200   56.9460   19.5710 O.2   322  ARG322     -0.2867
     60  CB        22.5120   54.1680   20.2670 C.3   322  ARG322      0.0307
     61  CG        22.1730   54.1380   21.7580 C.3   322  ARG322      0.0489
     62  CD        23.3390   53.7060   22.7330 C.3   322  ARG322      0.2205
     63  NE        23.0130   53.9940   24.1590 N.pl3 322  ARG322     -0.0865
     64  CZ        23.8000   53.7750   25.2110 C.cat 322  ARG322      0.5346
     65  NH1       24.9760   53.2220   25.0560 N.pl3 322  ARG322      0.1354
     66  NH2       23.3840   54.0620   26.4490 N.pl3 322  ARG322      0.1354
     67  N         19.4230   58.0070   23.4420 N.3   324  GLY324     -0.1210
     68  CA        18.8670   57.9000   24.7790 C.3   324  GLY324      0.1956
     69  C         18.0580   59.1630   25.1970 C.2   324  GLY324      0.2613
     70  O         18.4560   60.2910   24.8450 O.2   324  GLY324     -0.2717
     71  N         16.9890   58.9590   25.9480 N.am  325  THR325     -0.1938
     72  CA        16.1800   60.0470   26.4970 C.3   325  THR325      0.2028
     73  C         15.8660   59.8130   27.9450 C.2   325  THR325      0.2642
     74  O         15.9160   58.6730   28.4430 O.2   325  THR325     -0.2714
     75  CB        14.8500   60.2700   25.7270 C.3   325  THR325      0.1808
     76  OG1       14.0980   59.0660   25.5410 O.3   325  THR325     -0.2208
     77  CG2       15.1090   60.7850   24.3300 C.3   325  THR325      0.0379
     78  N         15.5440   60.9010   28.6530 N.am  326  TRP326     -0.1973
     79  CA        15.1620   60.8020   30.0410 C.3   326  TRP326      0.1640
     80  C         14.3320   62.0030   30.4990 C.2   326  TRP326      0.2290
     81  O         14.3510   63.0590   29.8740 O.2   326  TRP326     -0.2864
     82  CB        16.3630   60.6820   30.9400 C.3   326  TRP326      0.0576
     83  CG        17.2040   61.9010   31.0190 C.ar  326  TRP326      0.0006
     84  CD1       17.9470   62.4470   30.0260 C.ar  326  TRP326      0.0946
     85  CD2       17.4020   62.7270   32.1650 C.ar  326  TRP326      0.0152
     86  NE1       18.6060   63.5590   30.4790 N.ar  326  TRP326     -0.2442
     87  CE2       18.2710   63.7610   31.7900 C.ar  326  TRP326      0.0810
     88  CE3       16.9280   62.6940   33.4780 C.ar  326  TRP326      0.0012
     89  CZ2       18.6660   64.7600   32.6660 C.ar  326  TRP326      0.0191
     90  CZ3       17.3200   63.7090   34.3480 C.ar  326  TRP326      0.0001
     91  CH2       18.1840   64.7040   33.9400 C.ar  326  TRP326      0.0015
@<TRIPOS>BOND
     1    56    57    1
     2    57    58    1
     3    57    60    1
     4    59    58    2
     5    60    61    1
     6    61    62    1
     7    49    47    1
     8    62    63    1
     9    47    46    2
    10    47    48    1
    11    67    68    1
    12    46    45    1
    13    52    53    2
    14    52    51    1
    15    63    64    2
    16    77    75    1
    17    55    54    1
    18    68    69    1
    19    70    69    2
    20    65    64    1
    21    45    44    1
    22     6     7    1
    23    51    54    1
    24    51    50    1
    25    69    71   am
    26    64    66    1
    27    76    75    1
    28    44    43    1
    29    75    72    1
    30    71    72    1
    31    50    41   am
    32    72    73    1
    33     7    10    1
    34     7     8    1
    35    12    10    1
    36    42    41    2
    37    41    40    1
    38    10    11    1
    39    43    40    1
    40     9     8    2
    41     8    14   am
    42    40    39    1
    43    21    23   ar
    44    21    19   ar
    45    73    74    2
    46    73    78   am
    47    23    24   ar
    48    11    13    1
    49    14    15    1
    50    78    79    1
    51    39    36   am
    52    18    19    1
    53    18    15    1
    54    19    20   ar
    55    24    25    1
    56    24    22   ar
    57    15    16    1
    58    81    80    2
    59    36    37    2
    60    36    35    1
    61    84    86   ar
    62    84    83   ar
    63    79    80    1
    64    79    82    1
    65    20    22   ar
    66    86    87   ar
    67    16    17    2
    68    16    26   am
    69    82    83    1
    70    35    38    1
    71    35    34    1
    72    83    85   ar
    73     3     4    2
    74     3     2    1
    75    26    27    1
    76    87    85   ar
    77    87    89   ar
    78    85    88   ar
    79    89    91   ar
    80     2     5    1
    81     2     1    1
    82    29    28    2
    83    27    28    1
    84    27    30    1
    85    88    90   ar
    86    30    31    1
    87    91    90   ar
    88    31    33    1
    89    31    32    1
