@<TRIPOS>MOLECULE
tmp/1nqeA02.pdb
 101 99 0 0 0
SMALL
GASTEIGER

@<TRIPOS>ATOM
      1  N        -12.5200   75.7390   43.5570 N.3   384  VAL384     -0.1245
      2  CA       -11.9520   75.8020   42.2090 C.3   384  VAL384      0.1561
      3  C        -10.6530   74.9680   42.1250 C.2   384  VAL384      0.2260
      4  O         -9.6580   75.2300   42.8460 O.2   384  VAL384     -0.2867
      5  CB       -11.6260   77.2640   41.7910 C.3   384  VAL384      0.0252
      6  CG1      -11.1610   77.3690   40.3510 C.3   384  VAL384      0.0019
      7  CG2      -12.8700   78.1660   42.0170 C.3   384  VAL384      0.0019
      8  N         -7.4760   74.3750   40.0170 N.3   386  TRP386     -0.1227
      9  CA        -6.7850   75.1690   39.0290 C.3   386  TRP386      0.1737
     10  C         -5.3210   74.7480   38.8650 C.2   386  TRP386      0.2595
     11  O         -4.7630   74.1100   39.7360 O.2   386  TRP386     -0.2718
     12  CB        -6.8770   76.6570   39.4120 C.3   386  TRP386      0.0564
     13  CG        -6.3050   76.9680   40.7660 C.ar  386  TRP386      0.0003
     14  CD1       -6.9790   76.9800   41.9760 C.ar  386  TRP386      0.0946
     15  CD2       -4.9540   77.3360   41.0650 C.ar  386  TRP386      0.0152
     16  NE1       -6.1020   77.2780   42.9950 N.ar  386  TRP386     -0.2442
     17  CE2       -4.8600   77.5100   42.4650 C.ar  386  TRP386      0.0810
     18  CE3       -3.8070   77.5300   40.2970 C.ar  386  TRP386      0.0012
     19  CZ2       -3.7000   77.9190   43.0730 C.ar  386  TRP386      0.0191
     20  CZ3       -2.6630   77.8990   40.8910 C.ar  386  TRP386      0.0001
     21  CH2       -2.5950   78.0970   42.2770 C.ar  386  TRP386      0.0015
     22  N         -4.7060   75.1600   37.7690 N.am  387  ARG387     -0.1966
     23  CA        -3.2910   74.9510   37.5470 C.3   387  ARG387      0.1729
     24  C         -2.7630   75.9680   36.5470 C.2   387  ARG387      0.2616
     25  O         -3.4370   76.3010   35.5810 O.2   387  ARG387     -0.2715
     26  CB        -3.0720   73.5240   37.0520 C.3   387  ARG387      0.0348
     27  CG        -1.6230   73.2080   36.7180 C.3   387  ARG387      0.0492
     28  CD        -1.4650   71.8090   36.2280 C.3   387  ARG387      0.2205
     29  NE        -0.0910   71.4070   36.0160 N.pl3 387  ARG387     -0.0865
     30  CZ         0.3990   70.2490   36.4470 C.cat 387  ARG387      0.5346
     31  NH1       -0.3730   69.4380   37.1540 N.pl3 387  ARG387      0.1354
     32  NH2        1.6380   69.9000   36.2010 N.pl3 387  ARG387      0.1354
     33  N         -1.5650   76.4730   36.7910 N.am  388  ILE388     -0.1977
     34  CA        -0.8540   77.2790   35.8260 C.3   388  ILE388      0.1596
     35  C          0.5700   76.8230   35.7030 C.2   388  ILE388      0.2287
     36  O          1.2350   76.5870   36.7170 O.2   388  ILE388     -0.2864
     37  CB        -0.9030   78.8120   36.2470 C.3   388  ILE388      0.0276
     38  CG1       -0.1520   79.7020   35.2370 C.3   388  ILE388      0.0022
     39  CG2       -0.3100   79.0440   37.6140 C.3   388  ILE388      0.0022
     40  CD1       -0.4810   81.1450   35.3550 C.3   388  ILE388      0.0001
     41  N          2.6560   79.2300   28.2540 N.3   419  VAL419     -0.1245
     42  CA         1.9570   79.2830   29.5040 C.3   419  VAL419      0.1561
     43  C          0.6400   78.6230   29.2580 C.2   419  VAL419      0.2260
     44  O         -0.0110   78.8490   28.2470 O.2   419  VAL419     -0.2867
     45  CB         1.7520   80.7430   30.0110 C.3   419  VAL419      0.0252
     46  CG1        0.9970   80.7420   31.3120 C.3   419  VAL419      0.0019
     47  CG2        3.0360   81.3610   30.2300 C.3   419  VAL419      0.0019
     48  N         -2.9240   77.8780   31.4270 N.3   421  ALA421     -0.1231
     49  CA        -3.6800   78.0500   32.6600 C.3   421  ALA421      0.1694
     50  C         -5.0420   77.3810   32.5720 C.2   421  ALA421      0.2593
     51  O         -5.7620   77.5040   31.5690 O.2   421  ALA421     -0.2718
     52  CB        -3.7830   79.5160   33.0120 C.3   421  ALA421      0.0304
     53  N         -5.3920   76.6360   33.6030 N.am  422  THR422     -0.1939
     54  CA        -6.6460   75.8990   33.5750 C.3   422  THR422      0.2028
     55  C         -7.4430   76.0250   34.8510 C.2   422  THR422      0.2642
     56  O         -6.8930   76.1540   35.9140 O.2   422  THR422     -0.2714
     57  CB        -6.4080   74.3910   33.3180 C.3   422  THR422      0.1808
     58  OG1       -5.4900   73.8760   34.2910 O.3   422  THR422     -0.2208
     59  CG2       -5.7800   74.1320   31.8870 C.3   422  THR422      0.0379
     60  N         -8.7520   75.8720   34.7550 N.am  423  ALA423     -0.1977
     61  CA        -9.5780   75.7940   35.9610 C.3   423  ALA423      0.1597
     62  C        -10.8940   75.0840   35.7070 C.2   423  ALA423      0.2287
     63  O        -11.4150   75.1590   34.6110 O.2   423  ALA423     -0.2864
     64  CB        -9.8640   77.2540   36.4670 C.3   423  ALA423      0.0319
     65  N        -12.4050   75.8040   31.8950 N.3   434  VAL434     -0.1231
     66  CA       -11.7840   76.8840   31.1640 C.3   434  VAL434      0.1692
     67  C        -10.2780   76.6790   31.0170 C.2   434  VAL434      0.2593
     68  O         -9.6150   76.1400   31.8990 O.2   434  VAL434     -0.2718
     69  CB       -12.0650   78.2410   31.8450 C.3   434  VAL434      0.0266
     70  CG1      -11.4060   78.3010   33.1770 C.3   434  VAL434      0.0020
     71  CG2      -11.5420   79.3710   30.9730 C.3   434  VAL434      0.0020
     72  N         -9.7350   77.1260   29.8810 N.am  435  SER435     -0.1938
     73  CA        -8.2970   77.1760   29.6810 C.3   435  SER435      0.2055
     74  C         -7.8410   78.3010   28.8030 C.2   435  SER435      0.2643
     75  O         -8.5770   78.8250   27.9630 O.2   435  SER435     -0.2714
     76  CB        -7.8150   75.8380   29.0690 C.3   435  SER435      0.2130
     77  OG        -8.0820   75.8060   27.6800 O.3   435  SER435     -0.2179
     78  N         -6.5960   78.6700   29.0300 N.am  436  TYR436     -0.1973
     79  CA        -5.8960   79.7290   28.3280 C.3   436  TYR436      0.1639
     80  C         -4.4900   79.1610   28.0040 C.2   436  TYR436      0.2290
     81  O         -3.8420   78.5800   28.8690 O.2   436  TYR436     -0.2864
     82  CB        -5.7290   80.9690   29.2090 C.3   436  TYR436      0.0560
     83  CG        -4.7710   81.9540   28.5960 C.ar  436  TYR436     -0.0198
     84  CD1       -5.1580   82.7310   27.4780 C.ar  436  TYR436     -0.0009
     85  CD2       -3.4970   82.0770   29.0390 C.ar  436  TYR436     -0.0009
     86  CE1       -4.2800   83.5780   26.8970 C.ar  436  TYR436      0.0417
     87  CE2       -2.5860   82.8850   28.4000 C.ar  436  TYR436      0.0417
     88  CZ        -3.0070   83.6750   27.3670 C.ar  436  TYR436      0.1957
     89  OH        -2.1300   84.5180   26.7500 O.3   436  TYR436     -0.2866
     90  N         -0.8520   80.5880   26.0820 N.3   438  TYR438     -0.1241
     91  CA         0.0230   81.5090   25.3820 C.3   438  TYR438      0.1605
     92  C          1.1540   80.6410   24.8170 C.2   438  TYR438      0.2264
     93  O          1.7370   79.8730   25.5580 O.2   438  TYR438     -0.2867
     94  CB         0.5840   82.5040   26.3620 C.3   438  TYR438      0.0534
     95  CG         1.7190   83.3640   25.8430 C.ar  438  TYR438     -0.0201
     96  CD1        1.4630   84.5870   25.3040 C.ar  438  TYR438     -0.0009
     97  CD2        3.0620   82.9770   25.9960 C.ar  438  TYR438     -0.0009
     98  CE1        2.4670   85.4040   24.8620 C.ar  438  TYR438      0.0417
     99  CE2        4.0600   83.7810   25.5860 C.ar  438  TYR438      0.0417
    100  CZ         3.7520   85.0200   24.9990 C.ar  438  TYR438      0.1957
    101  OH         4.7330   85.8540   24.5600 O.3   438  TYR438     -0.2866
@<TRIPOS>BOND
     1   101   100    1
     2    92    91    1
     3    92    93    2
     4    98   100   ar
     5    98    96   ar
     6   100    99   ar
     7    96    95   ar
     8    91    90    1
     9    91    94    1
    10    99    97   ar
    11    95    97   ar
    12    95    94    1
    13    89    88    1
    14    86    88   ar
    15    86    84   ar
    16    88    87   ar
    17    84    83   ar
    18    77    76    1
    19    75    74    2
    20    80    79    1
    21    80    81    2
    22    44    43    2
    23    41    42    1
    24    79    78    1
    25    79    82    1
    26    87    85   ar
    27    83    85   ar
    28    83    82    1
    29    74    78   am
    30    74    73    1
    31    76    73    1
    32    43    42    1
    33    42    45    1
    34    73    72    1
    35    72    67   am
    36    45    47    1
    37    45    46    1
    38    71    69    1
    39    67    66    1
    40    67    68    2
    41    66    69    1
    42    66    65    1
    43    48    49    1
    44    51    50    2
    45    69    70    1
    46    59    57    1
    47    50    49    1
    48    50    53   am
    49    49    52    1
    50    57    54    1
    51    57    58    1
    52    54    53    1
    53    54    55    1
    54    63    62    2
    55    60    55   am
    56    60    61    1
    57    55    56    2
    58    38    40    1
    59    38    37    1
    60    25    24    2
    61    35    34    1
    62    35    36    2
    63    62    61    1
    64    34    37    1
    65    34    33    1
    66    61    64    1
    67    29    28    1
    68    29    30    2
    69    32    30    1
    70    28    27    1
    71    37    39    1
    72    30    31    1
    73    24    33   am
    74    24    23    1
    75    27    26    1
    76    26    23    1
    77    23    22    1
    78    22    10   am
    79    10     9    1
    80    10    11    2
    81     9    12    1
    82     9     8    1
    83    12    13    1
    84    18    20   ar
    85    18    15   ar
    86     6     5    1
    87    13    15   ar
    88    13    14   ar
    89    20    21   ar
    90    15    17   ar
    91     5     7    1
    92     5     2    1
    93    14    16   ar
    94     3     2    1
    95     3     4    2
    96     2     1    1
    97    21    19   ar
    98    17    16   ar
    99    17    19   ar
