@<TRIPOS>MOLECULE
tmp/1nqeA04.pdb
 99 97 0 0 0
SMALL
GASTEIGER

@<TRIPOS>ATOM
      1  N          3.6750   72.9190   44.1370 N.3   340  PHE340     -0.1241
      2  CA         4.5960   73.3850   43.1430 C.3   340  PHE340      0.1605
      3  C          5.2450   72.1610   42.4750 C.2   340  PHE340      0.2264
      4  O          5.7070   71.2680   43.1700 O.2   340  PHE340     -0.2867
      5  CB         5.7650   74.1540   43.7460 C.3   340  PHE340      0.0534
      6  CG         6.7740   74.5980   42.7250 C.ar  340  PHE340     -0.0203
      7  CD1        6.4460   75.5560   41.7520 C.ar  340  PHE340     -0.0042
      8  CD2        8.0760   74.0800   42.7200 C.ar  340  PHE340     -0.0042
      9  CE1        7.4030   75.9730   40.7940 C.ar  340  PHE340     -0.0003
     10  CE2        9.0140   74.4940   41.7500 C.ar  340  PHE340     -0.0003
     11  CZ         8.6760   75.4350   40.7930 C.ar  340  PHE340     -0.0000
     12  N          7.6300   74.4930   34.9890 N.3   375  GLY375     -0.1225
     13  CA         7.2840   74.7970   36.3810 C.3   375  GLY375      0.1811
     14  C          5.8080   75.0980   36.5110 C.2   375  GLY375      0.2280
     15  O          5.2590   75.7140   35.6240 O.2   375  GLY375     -0.2866
     16  N          2.1860   75.6670   39.3020 N.3   377  PHE377     -0.1241
     17  CA         1.4980   75.7450   40.5720 C.3   377  PHE377      0.1605
     18  C          0.1020   75.1560   40.3420 C.2   377  PHE377      0.2264
     19  O         -0.5870   75.4890   39.3900 O.2   377  PHE377     -0.2867
     20  CB         1.4190   77.2080   41.0880 C.3   377  PHE377      0.0534
     21  CG         2.6810   77.7030   41.7640 C.ar  377  PHE377     -0.0203
     22  CD1        3.6110   78.4720   41.0640 C.ar  377  PHE377     -0.0042
     23  CD2        2.9540   77.3900   43.1030 C.ar  377  PHE377     -0.0042
     24  CE1        4.7880   78.9440   41.6830 C.ar  377  PHE377     -0.0003
     25  CE2        4.1540   77.8520   43.7330 C.ar  377  PHE377     -0.0003
     26  CZ         5.0500   78.6280   43.0140 C.ar  377  PHE377     -0.0000
     27  N         -1.5650   76.4730   36.7910 N.3   388  ILE388     -0.1231
     28  CA        -0.8540   77.2790   35.8260 C.3   388  ILE388      0.1692
     29  C          0.5700   76.8230   35.7030 C.2   388  ILE388      0.2593
     30  O          1.2350   76.5870   36.7170 O.2   388  ILE388     -0.2718
     31  CB        -0.9030   78.8120   36.2470 C.3   388  ILE388      0.0266
     32  CG1       -0.1520   79.7020   35.2370 C.3   388  ILE388      0.0019
     33  CG2       -0.3100   79.0440   37.6140 C.3   388  ILE388      0.0020
     34  CD1       -0.4810   81.1450   35.3550 C.3   388  ILE388      0.0001
     35  N          1.0370   76.6780   34.4470 N.am  389  SER389     -0.1938
     36  CA         2.3830   76.1760   34.1150 C.3   389  SER389      0.2055
     37  C          3.0920   77.0740   33.1180 C.2   389  SER389      0.2644
     38  O          2.4670   77.5770   32.1910 O.2   389  SER389     -0.2714
     39  CB         2.2940   74.7960   33.4110 C.3   389  SER389      0.2130
     40  OG         1.3460   73.8940   33.9820 O.3   389  SER389     -0.2179
     41  N          4.3960   77.2110   33.2760 N.am  390  GLY390     -0.1939
     42  CA         5.2560   77.8760   32.3180 C.3   390  GLY390      0.2014
     43  C          6.2400   76.8210   31.8050 C.2   390  GLY390      0.2639
     44  O          6.8190   76.0480   32.5980 O.2   390  GLY390     -0.2714
     45  N          6.4380   76.7670   30.4970 N.am  391  TYR391     -0.1959
     46  CA         7.3980   75.8340   29.9110 C.3   391  TYR391      0.1771
     47  C          8.2510   76.5300   28.8670 C.2   391  TYR391      0.2619
     48  O          7.8370   77.5370   28.2690 O.2   391  TYR391     -0.2715
     49  CB         6.6860   74.5990   29.2920 C.3   391  TYR391      0.0574
     50  CG         5.6710   74.9270   28.2120 C.ar  391  TYR391     -0.0198
     51  CD1        4.3350   75.1550   28.5370 C.ar  391  TYR391     -0.0009
     52  CD2        6.0510   75.0400   26.8850 C.ar  391  TYR391     -0.0009
     53  CE1        3.3840   75.4140   27.5800 C.ar  391  TYR391      0.0417
     54  CE2        5.1110   75.3610   25.8980 C.ar  391  TYR391      0.0417
     55  CZ         3.7780   75.5530   26.2560 C.ar  391  TYR391      0.1957
     56  OH         2.8270   75.8810   25.3230 O.3   391  TYR391     -0.2866
     57  N          9.4500   75.9840   28.6950 N.am  392  ARG392     -0.1977
     58  CA        10.4140   76.3210   27.6540 C.3   392  ARG392      0.1597
     59  C         10.8710   75.0290   26.9550 C.2   392  ARG392      0.2287
     60  O         11.2180   74.0430   27.6180 O.2   392  ARG392     -0.2864
     61  CB        11.6220   77.0230   28.2370 C.3   392  ARG392      0.0334
     62  CG        12.6120   77.4250   27.2020 C.3   392  ARG392      0.0492
     63  CD        13.9090   77.9110   27.7370 C.3   392  ARG392      0.2205
     64  NE        14.7830   78.2750   26.6460 N.pl3 392  ARG392     -0.0865
     65  CZ        16.0260   78.7050   26.8110 C.cat 392  ARG392      0.5346
     66  NH1       16.5160   78.8130   28.0470 N.pl3 392  ARG392      0.1354
     67  NH2       16.7770   79.0030   25.7450 N.pl3 392  ARG392      0.1354
     68  N          8.3240   79.2040   24.1570 N.3   417  LYS417     -0.1231
     69  CA         8.0060   79.6130   25.5290 C.3   417  LYS417      0.1693
     70  C          6.4990   79.7050   25.6570 C.2   417  LYS417      0.2593
     71  O          5.8240   80.3520   24.8600 O.2   417  LYS417     -0.2718
     72  CB         8.6590   80.9310   25.8790 C.3   417  LYS417      0.0285
     73  CG        10.1730   80.9100   25.8300 C.3   417  LYS417      0.0035
     74  CD        10.7730   82.2400   26.2660 C.3   417  LYS417      0.0206
     75  CE        11.7990   82.7740   25.3080 C.3   417  LYS417      0.1093
     76  NZ        11.8190   84.2760   25.2880 N.3   417  LYS417     -0.1314
     77  N          5.9510   79.0400   26.6450 N.am  418  GLY418     -0.1942
     78  CA         4.5140   78.9230   26.7540 C.3   418  GLY418      0.2014
     79  C          3.9680   78.9580   28.1730 C.2   418  GLY418      0.2638
     80  O          4.7110   78.7800   29.1660 O.2   418  GLY418     -0.2714
     81  N          2.6560   79.2300   28.2540 N.am  419  VAL419     -0.1977
     82  CA         1.9570   79.2830   29.5040 C.3   419  VAL419      0.1596
     83  C          0.6400   78.6230   29.2580 C.2   419  VAL419      0.2287
     84  O         -0.0110   78.8490   28.2470 O.2   419  VAL419     -0.2864
     85  CB         1.7520   80.7430   30.0110 C.3   419  VAL419      0.0276
     86  CG1        0.9970   80.7420   31.3120 C.3   419  VAL419      0.0022
     87  CG2        3.0360   81.3610   30.2300 C.3   419  VAL419      0.0022
     88  N         -0.8520   80.5880   26.0820 N.3   438  TYR438     -0.1241
     89  CA         0.0230   81.5090   25.3820 C.3   438  TYR438      0.1605
     90  C          1.1540   80.6410   24.8170 C.2   438  TYR438      0.2264
     91  O          1.7370   79.8730   25.5580 O.2   438  TYR438     -0.2867
     92  CB         0.5840   82.5040   26.3620 C.3   438  TYR438      0.0534
     93  CG         1.7190   83.3640   25.8430 C.ar  438  TYR438     -0.0201
     94  CD1        1.4630   84.5870   25.3040 C.ar  438  TYR438     -0.0009
     95  CD2        3.0620   82.9770   25.9960 C.ar  438  TYR438     -0.0009
     96  CE1        2.4670   85.4040   24.8620 C.ar  438  TYR438      0.0417
     97  CE2        4.0600   83.7810   25.5860 C.ar  438  TYR438      0.0417
     98  CZ         3.7520   85.0200   24.9990 C.ar  438  TYR438      0.1957
     99  OH         4.7330   85.8540   24.5600 O.3   438  TYR438     -0.2866
@<TRIPOS>BOND
     1    68    69    1
     2    99    98    1
     3    90    89    1
     4    90    91    2
     5    71    70    2
     6    96    98   ar
     7    96    94   ar
     8    98    97   ar
     9    76    75    1
    10    94    93   ar
    11    75    74    1
    12    56    55    1
    13    89    88    1
    14    89    92    1
    15    69    70    1
    16    69    72    1
    17    97    95   ar
    18    70    77   am
    19    67    65    1
    20    73    72    1
    21    73    74    1
    22    93    95   ar
    23    93    92    1
    24    54    55   ar
    25    54    52   ar
    26    55    53   ar
    27    77    78    1
    28    64    65    2
    29    64    63    1
    30    78    79    1
    31    65    66    1
    32    52    50   ar
    33    59    60    2
    34    59    58    1
    35    62    63    1
    36    62    61    1
    37    53    51   ar
    38    58    61    1
    39    58    57    1
    40    79    81   am
    41    79    80    2
    42    50    51   ar
    43    50    49    1
    44    84    83    2
    45    81    82    1
    46    48    47    2
    47    57    47   am
    48    47    46    1
    49    83    82    1
    50    49    46    1
    51    82    85    1
    52    46    45    1
    53    85    87    1
    54    85    86    1
    55    45    43   am
    56    43    42    1
    57    43    44    2
    58    38    37    2
    59    42    41    1
    60    37    41   am
    61    37    36    1
    62    39    40    1
    63    39    36    1
    64    36    35    1
    65    35    29   am
    66    12    13    1
    67    32    34    1
    68    32    31    1
    69    15    14    2
    70    29    28    1
    71    29    30    2
    72    28    31    1
    73    28    27    1
    74    31    33    1
    75    13    14    1
    76    16    17    1
    77    19    18    2
    78    18    17    1
    79    17    20    1
    80    11     9   ar
    81    11    10   ar
    82     9     7   ar
    83    22    24   ar
    84    22    21   ar
    85    20    21    1
    86    24    26   ar
    87    10     8   ar
    88     7     6   ar
    89    21    23   ar
    90     3     2    1
    91     3     4    2
    92     8     6   ar
    93     6     5    1
    94    26    25   ar
    95    23    25   ar
    96     2     5    1
    97     2     1    1
