@<TRIPOS>MOLECULE
tmp/1nqlA04.pdb
 75 70 0 0 0
SMALL
GASTEIGER

@<TRIPOS>ATOM
      1  N         45.7870   -8.1350  -24.5590 N.3   239  PRO239     -0.2116
      2  CA        47.0850   -8.7020  -24.1660 C.3   239  PRO239      0.1372
      3  C         47.5060   -8.1690  -22.7790 C.2   239  PRO239      0.2244
      4  O         47.6630   -6.9460  -22.6060 O.2   239  PRO239     -0.2868
      5  CB        48.0450   -8.2020  -25.2710 C.3   239  PRO239      0.0268
      6  CG        47.2140   -7.3400  -26.1900 C.3   239  PRO239      0.0207
      7  CD        45.7770   -7.7240  -25.9760 C.3   239  PRO239      0.0892
      8  N         52.5110  -11.0670  -17.2580 N.3   243  LEU243     -0.1245
      9  CA        52.5470  -12.3650  -17.9360 C.3   243  LEU243      0.1561
     10  C         53.1730  -13.4240  -17.0060 C.2   243  LEU243      0.2260
     11  O         53.8020  -13.0690  -16.0210 O.2   243  LEU243     -0.2867
     12  CB        53.2700  -12.2520  -19.2910 C.3   243  LEU243      0.0270
     13  CG        54.6160  -12.8930  -19.6510 C.3   243  LEU243      0.0019
     14  CD1       55.0190  -12.4560  -21.0360 C.3   243  LEU243      0.0001
     15  CD2       55.7440  -12.5610  -18.6940 C.3   243  LEU243      0.0001
     16  N         54.9610   -7.8820  -18.8560 N.3   254  ASN254     -0.1240
     17  CA        54.7720   -8.3140  -20.2310 C.3   254  ASN254      0.1653
     18  C         55.0150   -7.1650  -21.2460 C.2   254  ASN254      0.2266
     19  O         54.1670   -6.2810  -21.4020 O.2   254  ASN254     -0.2867
     20  CB        53.3790   -8.9420  -20.3780 C.3   254  ASN254      0.1155
     21  CG        53.0460   -9.3240  -21.8160 C.2   254  ASN254      0.2627
     22  OD1       53.8730   -9.2040  -22.7520 O.2   254  ASN254     -0.2716
     23  ND2       51.8100   -9.7710  -22.0070 N.am  254  ASN254     -0.0877
     24  N         54.9900   -7.0020  -24.4100 N.3   256  GLU256     -0.1245
     25  CA        53.9620   -6.9860  -25.4510 C.3   256  GLU256      0.1567
     26  C         52.5500   -6.7200  -24.9020 C.2   256  GLU256      0.2260
     27  O         51.5560   -6.8420  -25.6280 O.2   256  GLU256     -0.2867
     28  CB        53.9620   -8.3330  -26.1620 C.3   256  GLU256      0.0388
     29  CG        54.6980   -8.3680  -27.4880 C.3   256  GLU256      0.1160
     30  CD        54.2340   -9.5190  -28.3710 C.2   256  GLU256      0.3649
     31  OE1       53.4080  -10.3480  -27.8960 O.co2 256  GLU256     -0.2457
     32  OE2       54.6880   -9.5890  -29.5490 O.co2 256  GLU256     -0.2457
     33  N         48.5990  -16.1680  -19.9860 N.3   574  MET574     -0.1230
     34  CA        49.5590  -15.6670  -20.9710 C.3   574  MET574      0.1702
     35  C         51.0400  -15.9290  -20.6060 C.2   574  MET574      0.2592
     36  O         51.4260  -15.7620  -19.4580 O.2   574  MET574     -0.2718
     37  CB        49.3150  -14.1900  -21.2360 C.3   574  MET574      0.0401
     38  CG        49.6460  -13.7620  -22.6590 C.3   574  MET574      0.0596
     39  SD        48.7500  -14.6010  -24.0430 S.3   574  MET574     -0.1393
     40  CE        47.1110  -13.6440  -24.1420 C.3   574  MET574      0.0692
     41  N         51.8620  -16.3110  -21.5930 N.am  575  GLY575     -0.1957
     42  CA        53.2470  -16.7230  -21.3580 C.3   575  GLY575      0.1869
     43  C         54.3610  -15.9850  -22.1070 C.2   575  GLY575      0.2309
     44  O         54.0940  -15.0170  -22.8100 O.2   575  GLY575     -0.2863
     45  N         56.4450  -15.2630  -24.7580 N.3   577  ASN577     -0.1225
     46  CA        55.5650  -15.5440  -25.8930 C.3   577  ASN577      0.1785
     47  C         55.2300  -16.9530  -26.5060 C.2   577  ASN577      0.2597
     48  O         55.3960  -18.0110  -25.8870 O.2   577  ASN577     -0.2718
     49  CB        55.6990  -14.4670  -26.9780 C.3   577  ASN577      0.1169
     50  CG        54.3490  -14.0360  -27.4970 C.2   577  ASN577      0.2627
     51  OD1       54.2290  -13.1780  -28.3760 O.2   577  ASN577     -0.2716
     52  ND2       53.3070  -14.6850  -26.9610 N.am  577  ASN577     -0.0877
     53  N         54.7220  -16.8620  -27.7430 N.am  578  ASN578     -0.1960
     54  CA        53.9750  -17.8600  -28.5380 C.3   578  ASN578      0.1819
     55  C         52.7180  -18.5890  -28.0130 C.2   578  ASN578      0.2622
     56  O         51.9740  -19.1480  -28.8310 O.2   578  ASN578     -0.2715
     57  CB        54.8810  -18.7610  -29.4060 C.3   578  ASN578      0.1195
     58  CG        54.5480  -18.6410  -30.9070 C.2   578  ASN578      0.2630
     59  OD1       53.4120  -18.3250  -31.2780 O.2   578  ASN578     -0.2716
     60  ND2       55.5420  -18.8790  -31.7680 N.am  578  ASN578     -0.0877
     61  N         52.4570  -18.6060  -26.7020 N.am  579  THR579     -0.1937
     62  CA        51.3010  -19.3690  -26.1940 C.3   579  THR579      0.2028
     63  C         50.8470  -19.0640  -24.7610 C.2   579  THR579      0.2642
     64  O         51.4920  -18.3110  -24.0220 O.2   579  THR579     -0.2714
     65  CB        51.5380  -20.9130  -26.3020 C.3   579  THR579      0.1808
     66  OG1       52.3560  -21.2200  -27.4360 O.3   579  THR579     -0.2208
     67  CG2       50.2230  -21.6490  -26.6010 C.3   579  THR579      0.0379
     68  N         49.7170  -19.6780  -24.4030 N.am  580  LEU580     -0.1977
     69  CA        49.1950  -19.7000  -23.0460 C.3   580  LEU580      0.1596
     70  C         49.7410  -20.9120  -22.3350 C.2   580  LEU580      0.2287
     71  O         49.7990  -22.0020  -22.8990 O.2   580  LEU580     -0.2864
     72  CB        47.6630  -19.7520  -23.0270 C.3   580  LEU580      0.0297
     73  CG        46.8710  -18.7320  -23.8860 C.3   580  LEU580      0.0022
     74  CD1       45.5390  -19.3220  -24.2570 C.3   580  LEU580      0.0001
     75  CD2       46.6630  -17.4200  -23.1370 C.3   580  LEU580      0.0001
@<TRIPOS>BOND
     1    60    58   am
     2    59    58    2
     3    58    57    1
     4    32    30   ar
     5    57    54    1
     6    56    55    2
     7    54    55    1
     8    54    53    1
     9    51    50    2
    10    30    31   ar
    11    30    29    1
    12    55    61   am
    13    53    47   am
    14    50    49    1
    15    50    52   am
    16    29    28    1
    17    66    65    1
    18    49    46    1
    19    61    62    1
    20    67    65    1
    21    47    46    1
    22    47    48    2
    23    65    62    1
    24    62    63    1
    25     6     7    1
    26     6     5    1
    27    28    25    1
    28     7     1    1
    29    46    45    1
    30    27    26    2
    31    25    26    1
    32    25    24    1
    33     5     2    1
    34    63    68   am
    35    63    64    2
    36     1     2    1
    37    68    69    1
    38    74    73    1
    39     2     3    1
    40    40    39    1
    41    39    38    1
    42    73    75    1
    43    73    72    1
    44    69    72    1
    45    69    70    1
    46    71    70    2
    47    44    43    2
    48     3     4    2
    49    22    21    2
    50    38    37    1
    51    43    42    1
    52    23    21   am
    53    21    20    1
    54    41    42    1
    55    41    35   am
    56    19    18    2
    57    18    17    1
    58    37    34    1
    59    14    13    1
    60    34    35    1
    61    34    33    1
    62    35    36    2
    63    20    17    1
    64    17    16    1
    65    13    12    1
    66    13    15    1
    67    12     9    1
    68     9     8    1
    69     9    10    1
    70    10    11    2
