@<TRIPOS>MOLECULE
tmp/1nquA00.pdb
 117 117 0 0 0
SMALL
GASTEIGER

@<TRIPOS>ATOM
      1  N        143.0410   20.9880  138.6370 N.3    20  SER20      -0.1217
      2  CA       142.2290   20.3830  139.6740 C.3    20  SER20       0.1889
      3  C        142.0700   21.2930  140.8950 C.2    20  SER20       0.2288
      4  O        142.8720   22.2060  141.1300 O.2    20  SER20      -0.2866
      5  CB       142.8240   19.0350  140.0750 C.3    20  SER20       0.2089
      6  OG       144.2280   19.1420  140.2290 O.3    20  SER20      -0.2183
      7  N        141.6170   20.0530  144.2350 N.3    22  PHE22      -0.1227
      8  CA       142.2050   19.4980  145.4570 C.3    22  PHE22       0.1736
      9  C        143.5520   20.2450  145.6640 C.2    22  PHE22       0.2595
     10  O        144.2670   20.4980  144.7120 O.2    22  PHE22      -0.2718
     11  CB       142.3770   17.9950  145.2670 C.3    22  PHE22       0.0547
     12  CG       142.5210   17.2160  146.5410 C.ar   22  PHE22      -0.0202
     13  CD1      141.5070   16.3830  146.9530 C.ar   22  PHE22      -0.0042
     14  CD2      143.6700   17.2930  147.2810 C.ar   22  PHE22      -0.0042
     15  CE1      141.6310   15.6410  148.1170 C.ar   22  PHE22      -0.0003
     16  CE2      143.8040   16.5860  148.4650 C.ar   22  PHE22      -0.0003
     17  CZ       142.7810   15.7500  148.8720 C.ar   22  PHE22      -0.0000
     18  N        143.8770   20.6350  146.8890 N.am   23  ASN23      -0.1974
     19  CA       145.0840   21.4330  147.1560 C.3    23  ASN23       0.1688
     20  C        145.0790   22.7630  146.3840 C.2    23  ASN23       0.2292
     21  O        146.1180   23.2450  145.9140 O.2    23  ASN23      -0.2864
     22  CB       146.3580   20.6180  146.8780 C.3    23  ASN23       0.1181
     23  CG       146.6140   19.5560  147.9270 C.2    23  ASN23       0.2629
     24  OD1      146.3940   19.7940  149.1290 O.2    23  ASN23      -0.2716
     25  ND2      147.0720   18.3450  147.4870 N.am   23  ASN23      -0.0877
     26  N        137.6040   18.3570  139.8840 N.3    54  PRO54      -0.2102
     27  CA       137.7710   18.1260  141.3170 C.3    54  PRO54       0.1504
     28  C        139.1710   17.7720  141.7830 C.2    54  PRO54       0.2576
     29  O        139.6910   18.4200  142.7020 O.2    54  PRO54      -0.2718
     30  CB       136.8110   16.9720  141.5940 C.3    54  PRO54       0.0282
     31  CG       135.7550   17.1180  140.5390 C.3    54  PRO54       0.0208
     32  CD       136.4700   17.5750  139.3270 C.3    54  PRO54       0.0893
     33  N        139.7460   16.7320  141.2060 N.am   55  GLY55      -0.1943
     34  CA       141.0510   16.2580  141.6370 C.3    55  GLY55       0.2014
     35  C        141.9370   15.7980  140.4960 C.2    55  GLY55       0.2640
     36  O        141.5150   15.7640  139.3400 O.2    55  GLY55      -0.2714
     37  N        143.1820   15.4370  140.8090 N.am   56  SER56      -0.1935
     38  CA       144.0930   14.9660  139.8040 C.3    56  SER56       0.2055
     39  C        143.5260   13.8080  139.0270 C.2    56  SER56       0.2643
     40  O        143.7670   13.6950  137.8310 O.2    56  SER56      -0.2714
     41  CB       145.4710   14.6410  140.3930 C.3    56  SER56       0.2130
     42  OG       146.1070   15.8610  140.7540 O.3    56  SER56      -0.2179
     43  N        142.7790   12.9370  139.6920 N.am   57  TRP57      -0.1959
     44  CA       142.1840   11.7860  139.0350 C.3    57  TRP57       0.1771
     45  C        141.3650   12.1580  137.8020 C.2    57  TRP57       0.2619
     46  O        141.3690   11.4290  136.7840 O.2    57  TRP57      -0.2715
     47  CB       141.2730   11.0530  140.0360 C.3    57  TRP57       0.0590
     48  CG       140.5860    9.8700  139.4510 C.ar   57  TRP57       0.0006
     49  CD1      139.3230    9.8170  138.9540 C.ar   57  TRP57       0.0946
     50  CD2      141.1480    8.5760  139.2610 C.ar   57  TRP57       0.0152
     51  NE1      139.0610    8.5610  138.4480 N.ar   57  TRP57      -0.2442
     52  CE2      140.1650    7.7740  138.6420 C.ar   57  TRP57       0.0810
     53  CE3      142.3830    7.9950  139.5750 C.ar   57  TRP57       0.0012
     54  CZ2      140.3910    6.4430  138.3120 C.ar   57  TRP57       0.0191
     55  CZ3      142.5900    6.6580  139.2570 C.ar   57  TRP57       0.0001
     56  CH2      141.6100    5.9120  138.6290 C.ar   57  TRP57       0.0015
     57  N        140.6800   13.2980  137.9150 N.am   58  GLU58      -0.1977
     58  CA       139.7560   13.7610  136.8810 C.3    58  GLU58       0.1602
     59  C        140.4320   14.5740  135.7890 C.2    58  GLU58       0.2287
     60  O        139.8070   14.9140  134.7950 O.2    58  GLU58      -0.2864
     61  CB       138.6530   14.5870  137.5620 C.3    58  GLU58       0.0415
     62  CG       137.6490   13.7600  138.3400 C.3    58  GLU58       0.1163
     63  CD       138.0930   13.3720  139.7420 C.2    58  GLU58       0.3649
     64  OE1      138.9140   14.0570  140.3440 O.co2  58  GLU58      -0.2457
     65  OE2      137.5310   12.3840  140.2360 O.co2  58  GLU58      -0.2457
     66  N        148.0330   19.1930  142.0790 N.3    80  VAL80      -0.1231
     67  CA       148.9720   18.9870  143.1800 C.3    80  VAL80       0.1692
     68  C        148.5820   17.7480  143.9750 C.2    80  VAL80       0.2592
     69  O        147.5160   17.6870  144.5950 O.2    80  VAL80      -0.2718
     70  CB       149.0300   20.2140  144.0910 C.3    80  VAL80       0.0266
     71  CG1      149.9290   19.9320  145.2950 C.3    80  VAL80       0.0020
     72  CG2      149.5440   21.4390  143.3210 C.3    80  VAL80       0.0020
     73  N        149.4380   16.7470  143.8870 N.am   81  LEU81      -0.1966
     74  CA       149.3450   15.5180  144.6580 C.3    81  LEU81       0.1728
     75  C        150.3790   15.5490  145.7730 C.2    81  LEU81       0.2616
     76  O        151.5590   15.8530  145.5410 O.2    81  LEU81      -0.2715
     77  CB       149.6240   14.3210  143.7460 C.3    81  LEU81       0.0311
     78  CG       148.3970   13.8900  142.9440 C.3    81  LEU81       0.0022
     79  CD1      148.8170   13.2970  141.6280 C.3    81  LEU81       0.0001
     80  CD2      147.5360   12.9010  143.7140 C.3    81  LEU81       0.0001
     81  N        149.9180   15.2880  146.9900 N.am   82  ILE82      -0.1977
     82  CA       150.7820   15.2200  148.1650 C.3    82  ILE82       0.1596
     83  C        150.4840   13.8970  148.8500 C.2    82  ILE82       0.2287
     84  O        149.3260   13.5670  149.1480 O.2    82  ILE82      -0.2864
     85  CB       150.5630   16.3690  149.1330 C.3    82  ILE82       0.0276
     86  CG1      150.7030   17.7210  148.4330 C.3    82  ILE82       0.0022
     87  CG2      151.5540   16.2560  150.2900 C.3    82  ILE82       0.0022
     88  CD1      150.2400   18.8850  149.2880 C.3    82  ILE82       0.0001
     89  N        147.1200    5.6540  148.4520 N.3    88  HIS88      -0.1226
     90  CA       146.1780    6.3120  147.5510 C.3    88  HIS88       0.1752
     91  C        146.9130    7.2270  146.5310 C.2    88  HIS88       0.2596
     92  O        146.6320    7.1840  145.3360 O.2    88  HIS88      -0.2718
     93  CB       145.1480    7.0900  148.3460 C.3    88  HIS88       0.0759
     94  CG       143.8340    7.1950  147.6440 C.ar   88  HIS88       0.0818
     95  ND1      143.2060    8.3910  147.4000 N.ar   88  HIS88      -0.2268
     96  CD2      143.0040    6.2280  147.1850 C.ar   88  HIS88       0.1154
     97  CE1      142.0610    8.1630  146.7860 C.ar   88  HIS88       0.1986
     98  NE2      141.9070    6.8580  146.6610 N.ar   88  HIS88      -0.2212
     99  N        147.8390    8.0420  147.0290 N.am   89  PHE89      -0.1976
    100  CA       148.6510    8.9310  146.1920 C.3    89  PHE89       0.1639
    101  C        149.3120    8.2250  145.0290 C.2    89  PHE89       0.2290
    102  O        149.3030    8.7140  143.9090 O.2    89  PHE89      -0.2864
    103  CB       149.6960    9.5800  147.1080 C.3    89  PHE89       0.0560
    104  CG       150.8560   10.2570  146.4070 C.ar   89  PHE89      -0.0200
    105  CD1      150.8890   11.6390  146.2560 C.ar   89  PHE89      -0.0042
    106  CD2      151.9590    9.5330  146.0110 C.ar   89  PHE89      -0.0042
    107  CE1      151.9970   12.2560  145.6820 C.ar   89  PHE89      -0.0003
    108  CE2      153.0620   10.1650  145.4400 C.ar   89  PHE89      -0.0003
    109  CZ       153.0730   11.5210  145.2870 C.ar   89  PHE89      -0.0000
    110  N        146.7380    7.2650  142.2290 N.3    92  ILE92      -0.1245
    111  CA       146.2590    8.4530  141.4930 C.3    92  ILE92       0.1561
    112  C        147.3910    9.0350  140.6160 C.2    92  ILE92       0.2260
    113  O        147.1960    9.3220  139.4220 O.2    92  ILE92      -0.2867
    114  CB       145.7170    9.5160  142.4380 C.3    92  ILE92       0.0252
    115  CG1      144.5150    8.9860  143.2470 C.3    92  ILE92       0.0019
    116  CG2      145.2690   10.8130  141.6630 C.3    92  ILE92       0.0019
    117  CD1      144.1040    9.8860  144.3430 C.3    92  ILE92       0.0001
@<TRIPOS>BOND
     1    60    59    2
     2    59    58    1
     3    46    45    2
     4    58    61    1
     5    58    57    1
     6    61    62    1
     7    45    57   am
     8    45    44    1
     9    40    39    2
    10    54    56   ar
    11    54    52   ar
    12    62    63    1
    13    51    52   ar
    14    51    49   ar
    15    56    55   ar
    16     1     2    1
    17    52    50   ar
    18    49    48   ar
    19    39    43   am
    20    39    38    1
    21    44    43    1
    22    44    47    1
    23    55    53   ar
    24    50    48   ar
    25    50    53   ar
    26    32    26    1
    27    32    31    1
    28    36    35    2
    29   113   112    2
    30    48    47    1
    31     2     5    1
    32     2     3    1
    33    63    65   ar
    34    63    64   ar
    35    38    41    1
    36    38    37    1
    37    26    27    1
    38     5     6    1
    39    41    42    1
    40    35    37   am
    41    35    34    1
    42    31    30    1
    43   112   111    1
    44     3     4    2
    45    33    34    1
    46    33    28   am
    47    27    30    1
    48    27    28    1
    49   111   110    1
    50   111   114    1
    51    79    78    1
    52   116   114    1
    53    28    29    2
    54    66    67    1
    55   114   115    1
    56    78    80    1
    57    78    77    1
    58    67    68    1
    59    67    70    1
    60   115   117    1
    61    72    70    1
    62    77    74    1
    63    73    68   am
    64    73    74    1
    65   102   101    2
    66    68    69    2
    67    70    71    1
    68     7     8    1
    69    74    75    1
    70    10     9    2
    71   101   100    1
    72    11     8    1
    73    11    12    1
    74   109   108   ar
    75   109   107   ar
    76    92    91    2
    77   108   106   ar
    78     8     9    1
    79    76    75    2
    80     9    18   am
    81   107   105   ar
    82    75    81   am
    83    21    20    2
    84   106   104   ar
    85   100    99    1
    86   100   103    1
    87   105   104   ar
    88    20    19    1
    89   104   103    1
    90    91    99   am
    91    91    90    1
    92    12    13   ar
    93    12    14   ar
    94    98    97   ar
    95    98    96   ar
    96    97    95   ar
    97    22    19    1
    98    22    23    1
    99    18    19    1
   100    13    15   ar
   101    81    82    1
   102    96    94   ar
   103    14    16   ar
   104    95    94   ar
   105    25    23   am
   106    90    93    1
   107    90    89    1
   108    94    93    1
   109    23    24    2
   110    15    17   ar
   111    82    83    1
   112    82    85    1
   113    86    85    1
   114    86    88    1
   115    16    17   ar
   116    83    84    2
   117    85    87    1
