@<TRIPOS>MOLECULE
tmp/1nqvA00.pdb
 117 117 0 0 0
SMALL
GASTEIGER

@<TRIPOS>ATOM
      1  N        142.6570   21.0150  138.1880 N.3    20  SER20      -0.1217
      2  CA       141.8470   20.3740  139.2250 C.3    20  SER20       0.1889
      3  C        141.6820   21.3100  140.4270 C.2    20  SER20       0.2288
      4  O        142.5180   22.2010  140.6620 O.2    20  SER20      -0.2866
      5  CB       142.4690   19.0370  139.6540 C.3    20  SER20       0.2089
      6  OG       143.8800   19.1230  139.7200 O.3    20  SER20      -0.2183
      7  N        141.2210   20.0580  143.7320 N.3    22  PHE22      -0.1227
      8  CA       141.8210   19.5180  144.9490 C.3    22  PHE22       0.1736
      9  C        143.1260   20.2650  145.1580 C.2    22  PHE22       0.2595
     10  O        143.8530   20.4970  144.2380 O.2    22  PHE22      -0.2718
     11  CB       142.0740   18.0350  144.7940 C.3    22  PHE22       0.0547
     12  CG       142.0800   17.2880  146.0710 C.ar   22  PHE22      -0.0202
     13  CD1      140.9880   16.5190  146.4420 C.ar   22  PHE22      -0.0042
     14  CD2      143.1860   17.3330  146.9180 C.ar   22  PHE22      -0.0042
     15  CE1      140.9870   15.7970  147.6630 C.ar   22  PHE22      -0.0003
     16  CE2      143.1940   16.6050  148.1290 C.ar   22  PHE22      -0.0003
     17  CZ       142.0690   15.8370  148.4910 C.ar   22  PHE22      -0.0000
     18  N        143.3960   20.6580  146.3780 N.am   23  ASN23      -0.1974
     19  CA       144.5810   21.4660  146.7090 C.3    23  ASN23       0.1688
     20  C        144.6300   22.7840  145.9290 C.2    23  ASN23       0.2292
     21  O        145.7150   23.2720  145.5410 O.2    23  ASN23      -0.2864
     22  CB       145.8910   20.6830  146.5320 C.3    23  ASN23       0.1181
     23  CG       146.0430   19.5360  147.5430 C.2    23  ASN23       0.2629
     24  OD1      145.7320   19.6990  148.6940 O.2    23  ASN23      -0.2716
     25  ND2      146.5780   18.3700  147.0950 N.am   23  ASN23      -0.0877
     26  N        137.1800   18.3910  139.4470 N.3    54  PRO54      -0.2102
     27  CA       137.3710   18.1520  140.8830 C.3    54  PRO54       0.1504
     28  C        138.7920   17.7660  141.3170 C.2    54  PRO54       0.2576
     29  O        139.3050   18.3920  142.2330 O.2    54  PRO54      -0.2718
     30  CB       136.4000   16.9970  141.1770 C.3    54  PRO54       0.0282
     31  CG       135.3410   17.1490  140.1750 C.3    54  PRO54       0.0208
     32  CD       136.0830   17.5680  138.9160 C.3    54  PRO54       0.0893
     33  N        139.3650   16.7310  140.7340 N.am   55  GLY55      -0.1943
     34  CA       140.6730   16.2660  141.1880 C.3    55  GLY55       0.2014
     35  C        141.5270   15.7910  140.0530 C.2    55  GLY55       0.2640
     36  O        141.0750   15.7660  138.9070 O.2    55  GLY55      -0.2714
     37  N        142.7650   15.4640  140.3580 N.am   56  SER56      -0.1935
     38  CA       143.6830   15.0230  139.3400 C.3    56  SER56       0.2055
     39  C        143.1060   13.8190  138.5910 C.2    56  SER56       0.2643
     40  O        143.3390   13.6730  137.3950 O.2    56  SER56      -0.2714
     41  CB       145.0500   14.7090  139.9310 C.3    56  SER56       0.2130
     42  OG       145.7030   15.9270  140.2560 O.3    56  SER56      -0.2179
     43  N        142.3690   12.9580  139.2780 N.am   57  TRP57      -0.1959
     44  CA       141.7610   11.7810  138.6450 C.3    57  TRP57       0.1771
     45  C        140.9510   12.1260  137.4000 C.2    57  TRP57       0.2619
     46  O        140.9720   11.4010  136.4050 O.2    57  TRP57      -0.2715
     47  CB       140.8150   11.0690  139.6360 C.3    57  TRP57       0.0590
     48  CG       140.1500    9.8940  139.0570 C.ar   57  TRP57       0.0006
     49  CD1      138.8810    9.8330  138.5530 C.ar   57  TRP57       0.0946
     50  CD2      140.7110    8.6040  138.8740 C.ar   57  TRP57       0.0152
     51  NE1      138.6230    8.5750  138.0630 N.ar   57  TRP57      -0.2442
     52  CE2      139.7380    7.8000  138.2560 C.ar   57  TRP57       0.0810
     53  CE3      141.9370    8.0300  139.1860 C.ar   57  TRP57       0.0012
     54  CZ2      139.9680    6.4830  137.9360 C.ar   57  TRP57       0.0191
     55  CZ3      142.1450    6.7290  138.8870 C.ar   57  TRP57       0.0001
     56  CH2      141.1900    5.9650  138.2550 C.ar   57  TRP57       0.0015
     57  N        140.2470   13.2700  137.4800 N.am   58  GLU58      -0.1977
     58  CA       139.3630   13.7320  136.4270 C.3    58  GLU58       0.1602
     59  C        140.0270   14.5630  135.3160 C.2    58  GLU58       0.2287
     60  O        139.3710   14.9010  134.3260 O.2    58  GLU58      -0.2864
     61  CB       138.2510   14.5570  137.0800 C.3    58  GLU58       0.0415
     62  CG       137.2370   13.7360  137.8550 C.3    58  GLU58       0.1163
     63  CD       137.6300   13.3880  139.2870 C.2    58  GLU58       0.3649
     64  OE1      138.4970   14.0700  139.8970 O.co2  58  GLU58      -0.2457
     65  OE2      137.0250   12.4120  139.8010 O.co2  58  GLU58      -0.2457
     66  N        147.5950   19.2130  141.6740 N.3    80  VAL80      -0.1231
     67  CA       148.5100   19.0200  142.7850 C.3    80  VAL80       0.1692
     68  C        148.1000   17.8050  143.5930 C.2    80  VAL80       0.2592
     69  O        147.0030   17.7420  144.1570 O.2    80  VAL80      -0.2718
     70  CB       148.5740   20.2220  143.6990 C.3    80  VAL80       0.0266
     71  CG1      149.4630   19.9080  144.9240 C.3    80  VAL80       0.0020
     72  CG2      149.1380   21.4210  142.9780 C.3    80  VAL80       0.0020
     73  N        148.9820   16.8270  143.5720 N.am   81  LEU81      -0.1966
     74  CA       148.8650   15.6190  144.3730 C.3    81  LEU81       0.1728
     75  C        149.9090   15.6530  145.4840 C.2    81  LEU81       0.2616
     76  O        151.1140   15.8820  145.2320 O.2    81  LEU81      -0.2715
     77  CB       149.1220   14.3910  143.4820 C.3    81  LEU81       0.0311
     78  CG       147.9100   13.9630  142.6460 C.3    81  LEU81       0.0022
     79  CD1      148.3730   13.3010  141.3550 C.3    81  LEU81       0.0001
     80  CD2      147.0550   13.0020  143.4170 C.3    81  LEU81       0.0001
     81  N        149.4530   15.4310  146.7070 N.am   82  ILE82      -0.1977
     82  CA       150.3340   15.3550  147.8520 C.3    82  ILE82       0.1596
     83  C        150.0500   14.0220  148.5430 C.2    82  ILE82       0.2287
     84  O        148.9130   13.7140  148.8030 O.2    82  ILE82      -0.2864
     85  CB       150.0350   16.4920  148.8150 C.3    82  ILE82       0.0276
     86  CG1      150.2690   17.8430  148.1240 C.3    82  ILE82       0.0022
     87  CG2      150.9410   16.3870  150.0400 C.3    82  ILE82       0.0022
     88  CD1      149.6930   19.0170  148.8810 C.3    82  ILE82       0.0001
     89  N        146.6010    5.7270  147.9660 N.3    88  HIS88      -0.1226
     90  CA       145.6450    6.4410  147.1490 C.3    88  HIS88       0.1752
     91  C        146.3800    7.3490  146.1320 C.2    88  HIS88       0.2596
     92  O        146.1050    7.3390  144.9220 O.2    88  HIS88      -0.2718
     93  CB       144.7870    7.2430  148.0970 C.3    88  HIS88       0.0759
     94  CG       143.6430    7.9230  147.4520 C.ar   88  HIS88       0.0818
     95  ND1      143.4360    9.2810  147.5740 N.ar   88  HIS88      -0.2268
     96  CD2      142.6200    7.4460  146.7070 C.ar   88  HIS88       0.1154
     97  CE1      142.3180    9.6090  146.9590 C.ar   88  HIS88       0.1986
     98  NE2      141.8040    8.5180  146.4190 N.ar   88  HIS88      -0.2212
     99  N        147.3430    8.1040  146.6520 N.am   89  PHE89      -0.1976
    100  CA       148.2050    8.9850  145.8660 C.3    89  PHE89       0.1639
    101  C        148.8530    8.2620  144.6740 C.2    89  PHE89       0.2290
    102  O        148.8130    8.7450  143.5460 O.2    89  PHE89      -0.2864
    103  CB       149.2610    9.5820  146.7990 C.3    89  PHE89       0.0560
    104  CG       150.4150   10.2810  146.1030 C.ar   89  PHE89      -0.0200
    105  CD1      150.4650   11.6820  146.0290 C.ar   89  PHE89      -0.0042
    106  CD2      151.5060    9.5350  145.6430 C.ar   89  PHE89      -0.0042
    107  CE1      151.6020   12.3370  145.4400 C.ar   89  PHE89      -0.0003
    108  CE2      152.6380   10.1620  145.0500 C.ar   89  PHE89      -0.0003
    109  CZ       152.6920   11.5520  144.9460 C.ar   89  PHE89      -0.0000
    110  N        146.2750    7.3390  141.8390 N.3    92  ILE92      -0.1245
    111  CA       145.8150    8.4970  141.1040 C.3    92  ILE92       0.1561
    112  C        146.9880    9.1020  140.2780 C.2    92  ILE92       0.2260
    113  O        146.8220    9.4160  139.1080 O.2    92  ILE92      -0.2867
    114  CB       145.2440    9.5410  142.0390 C.3    92  ILE92       0.0252
    115  CG1      144.0540    8.9920  142.8190 C.3    92  ILE92       0.0019
    116  CG2      144.7710   10.7950  141.2370 C.3    92  ILE92       0.0019
    117  CD1      143.6650    9.8790  143.9660 C.3    92  ILE92       0.0001
@<TRIPOS>BOND
     1    60    59    2
     2    59    58    1
     3    46    45    2
     4    58    61    1
     5    58    57    1
     6    61    62    1
     7    40    39    2
     8    45    57   am
     9    45    44    1
    10    62    63    1
    11    54    56   ar
    12    54    52   ar
    13    51    52   ar
    14    51    49   ar
    15     1     2    1
    16    56    55   ar
    17    52    50   ar
    18    49    48   ar
    19    39    43   am
    20    39    38    1
    21    44    43    1
    22    44    47    1
    23    50    48   ar
    24    50    53   ar
    25    55    53   ar
    26    36    35    2
    27    32    26    1
    28    32    31    1
    29    48    47    1
    30   113   112    2
    31     2     5    1
    32     2     3    1
    33    63    65   ar
    34    63    64   ar
    35    38    41    1
    36    38    37    1
    37    26    27    1
    38     5     6    1
    39    41    42    1
    40    35    37   am
    41    35    34    1
    42    31    30    1
    43   112   111    1
    44     3     4    2
    45    33    34    1
    46    33    28   am
    47    27    30    1
    48    27    28    1
    49   111   110    1
    50   111   114    1
    51   116   114    1
    52    28    29    2
    53    79    78    1
    54    66    67    1
    55   114   115    1
    56    78    80    1
    57    78    77    1
    58    67    68    1
    59    67    70    1
    60   115   117    1
    61    72    70    1
    62    77    74    1
    63   102   101    2
    64    73    68   am
    65    73    74    1
    66    68    69    2
    67    70    71    1
    68     7     8    1
    69    10     9    2
    70    74    75    1
    71   101   100    1
    72    11     8    1
    73    11    12    1
    74    92    91    2
    75   109   108   ar
    76   109   107   ar
    77     8     9    1
    78   108   106   ar
    79     9    18   am
    80    76    75    2
    81   107   105   ar
    82    75    81   am
    83    21    20    2
    84   106   104   ar
    85   100    99    1
    86   100   103    1
    87    20    19    1
    88   105   104   ar
    89    12    13   ar
    90    12    14   ar
    91   104   103    1
    92    91    99   am
    93    91    90    1
    94    18    19    1
    95    98    96   ar
    96    98    97   ar
    97    13    15   ar
    98    22    19    1
    99    22    23    1
   100    81    82    1
   101    96    94   ar
   102    14    16   ar
   103    97    95   ar
   104    25    23   am
   105    90    89    1
   106    90    93    1
   107    94    95   ar
   108    94    93    1
   109    23    24    2
   110    15    17   ar
   111    82    83    1
   112    82    85    1
   113    86    85    1
   114    86    88    1
   115    16    17   ar
   116    83    84    2
   117    85    87    1
