@<TRIPOS>MOLECULE
tmp/1nqwA00.pdb
 133 132 0 0 0
SMALL
GASTEIGER

@<TRIPOS>ATOM
      1  N        142.5560   20.9870  138.1460 N.3    20  SER20      -0.1217
      2  CA       141.7300   20.3590  139.1570 C.3    20  SER20       0.1889
      3  C        141.5570   21.2810  140.3780 C.2    20  SER20       0.2288
      4  O        142.3110   22.2480  140.5380 O.2    20  SER20      -0.2866
      5  CB       142.3320   19.0170  139.5310 C.3    20  SER20       0.2089
      6  OG       143.7210   19.1330  139.7200 O.3    20  SER20      -0.2183
      7  N        141.2050   19.9480  143.8050 N.3    22  PHE22      -0.1227
      8  CA       141.8160   19.4270  145.0120 C.3    22  PHE22       0.1736
      9  C        143.1090   20.2180  145.1980 C.2    22  PHE22       0.2595
     10  O        143.8260   20.4470  144.2450 O.2    22  PHE22      -0.2718
     11  CB       142.0980   17.9260  144.8940 C.3    22  PHE22       0.0547
     12  CG       142.1840   17.2290  146.2210 C.ar   22  PHE22      -0.0202
     13  CD1      141.1320   16.4400  146.6920 C.ar   22  PHE22      -0.0042
     14  CD2      143.3040   17.3960  147.0210 C.ar   22  PHE22      -0.0042
     15  CE1      141.2150   15.8150  147.9460 C.ar   22  PHE22      -0.0003
     16  CE2      143.3880   16.7920  148.2650 C.ar   22  PHE22      -0.0003
     17  CZ       142.3420   16.0070  148.7360 C.ar   22  PHE22      -0.0000
     18  N        143.4210   20.6150  146.4270 N.am   23  ASN23      -0.1974
     19  CA       144.6180   21.4220  146.6990 C.3    23  ASN23       0.1688
     20  C        144.6400   22.7480  145.9380 C.2    23  ASN23       0.2292
     21  O        145.7020   23.2530  145.5480 O.2    23  ASN23      -0.2864
     22  CB       145.8900   20.6040  146.4140 C.3    23  ASN23       0.1181
     23  CG       146.1620   19.5550  147.5010 C.2    23  ASN23       0.2629
     24  OD1      145.9510   19.8280  148.6930 O.2    23  ASN23      -0.2716
     25  ND2      146.6390   18.3590  147.0970 N.am   23  ASN23      -0.0877
     26  N        137.1250   18.2670  139.4800 N.3    54  PRO54      -0.2102
     27  CA       137.3340   18.0180  140.9120 C.3    54  PRO54       0.1504
     28  C        138.7380   17.6300  141.3230 C.2    54  PRO54       0.2576
     29  O        139.2550   18.3210  142.1870 O.2    54  PRO54      -0.2718
     30  CB       136.3560   16.8790  141.2300 C.3    54  PRO54       0.0282
     31  CG       135.3100   16.9590  140.1810 C.3    54  PRO54       0.0208
     32  CD       136.0580   17.4130  138.9290 C.3    54  PRO54       0.0893
     33  N        139.3230   16.5790  140.7640 N.am   55  GLY55      -0.1943
     34  CA       140.6560   16.1630  141.1630 C.3    55  GLY55       0.2014
     35  C        141.4990   15.7170  140.0030 C.2    55  GLY55       0.2640
     36  O        141.0280   15.6450  138.8550 O.2    55  GLY55      -0.2714
     37  N        142.7490   15.3900  140.3020 N.am   56  SER56      -0.1935
     38  CA       143.6690   14.9510  139.2730 C.3    56  SER56       0.2055
     39  C        143.1030   13.7600  138.5310 C.2    56  SER56       0.2643
     40  O        143.3060   13.6200  137.3360 O.2    56  SER56      -0.2714
     41  CB       145.0080   14.6150  139.8890 C.3    56  SER56       0.2130
     42  OG       145.6390   15.8110  140.2990 O.3    56  SER56      -0.2179
     43  N        142.3560   12.9210  139.2350 N.am   57  TRP57      -0.1959
     44  CA       141.7440   11.7530  138.6280 C.3    57  TRP57       0.1771
     45  C        140.9190   12.1000  137.3920 C.2    57  TRP57       0.2619
     46  O        140.9040   11.3530  136.3970 O.2    57  TRP57      -0.2715
     47  CB       140.8260   11.0250  139.6390 C.3    57  TRP57       0.0590
     48  CG       140.1270    9.8550  139.0250 C.ar   57  TRP57       0.0006
     49  CD1      138.8470    9.8120  138.5410 C.ar   57  TRP57       0.0946
     50  CD2      140.6740    8.5580  138.8090 C.ar   57  TRP57       0.0152
     51  NE1      138.5710    8.5600  138.0360 N.ar   57  TRP57      -0.2442
     52  CE2      139.6880    7.7820  138.1590 C.ar   57  TRP57       0.0810
     53  CE3      141.9090    7.9700  139.0830 C.ar   57  TRP57       0.0012
     54  CZ2      139.8900    6.4630  137.8260 C.ar   57  TRP57       0.0191
     55  CZ3      142.1170    6.6930  138.7290 C.ar   57  TRP57       0.0001
     56  CH2      141.1150    5.9350  138.1050 C.ar   57  TRP57       0.0015
     57  N        140.1850   13.2000  137.5000 N.am   58  GLU58      -0.1977
     58  CA       139.2940   13.6560  136.4450 C.3    58  GLU58       0.1602
     59  C        139.9710   14.4770  135.3530 C.2    58  GLU58       0.2287
     60  O        139.3280   14.8280  134.3660 O.2    58  GLU58      -0.2864
     61  CB       138.1670   14.5060  137.0540 C.3    58  GLU58       0.0415
     62  CG       137.1660   13.7090  137.8650 C.3    58  GLU58       0.1163
     63  CD       137.6240   13.3620  139.2740 C.2    58  GLU58       0.3649
     64  OE1      138.5180   14.0340  139.8370 O.co2  58  GLU58      -0.2457
     65  OE2      137.0400   12.4030  139.8140 O.co2  58  GLU58      -0.2457
     66  N        147.5680   19.2340  141.6070 N.3    80  VAL80      -0.1231
     67  CA       148.4850   19.0510  142.7300 C.3    80  VAL80       0.1692
     68  C        148.1150   17.8270  143.5300 C.2    80  VAL80       0.2592
     69  O        147.0700   17.7870  144.1670 O.2    80  VAL80      -0.2718
     70  CB       148.5010   20.2480  143.6430 C.3    80  VAL80       0.0266
     71  CG1      149.3960   19.9680  144.8720 C.3    80  VAL80       0.0020
     72  CG2      149.0450   21.4230  142.9140 C.3    80  VAL80       0.0020
     73  N        148.9780   16.8240  143.4640 N.am   81  LEU81      -0.1966
     74  CA       148.8430   15.6150  144.2510 C.3    81  LEU81       0.1728
     75  C        149.8560   15.6220  145.3810 C.2    81  LEU81       0.2616
     76  O        151.0660   15.8340  145.1520 O.2    81  LEU81      -0.2715
     77  CB       149.1170   14.4030  143.3710 C.3    81  LEU81       0.0311
     78  CG       147.9390   13.9650  142.5210 C.3    81  LEU81       0.0022
     79  CD1      148.4420   13.3120  141.2290 C.3    81  LEU81       0.0001
     80  CD2      147.0310   13.0390  143.2800 C.3    81  LEU81       0.0001
     81  N        149.3690   15.4130  146.5930 N.am   82  ILE82      -0.1977
     82  CA       150.2410   15.3310  147.7520 C.3    82  ILE82       0.1596
     83  C        149.9310   14.0350  148.4660 C.2    82  ILE82       0.2287
     84  O        148.7930   13.7920  148.8270 O.2    82  ILE82      -0.2864
     85  CB       150.0260   16.5050  148.6960 C.3    82  ILE82       0.0276
     86  CG1      150.1760   17.8330  147.9500 C.3    82  ILE82       0.0022
     87  CG2      151.0190   16.4410  149.8350 C.3    82  ILE82       0.0022
     88  CD1      149.7980   19.0360  148.8040 C.3    82  ILE82       0.0001
     89  N        149.2770   11.1180  150.9580 N.3    84  GLY84      -0.1210
     90  CA       148.7010   11.0260  152.2790 C.3    84  GLY84       0.1956
     91  C        149.2040    9.7740  152.9830 C.2    84  GLY84       0.2612
     92  O        150.3570    9.3830  152.8230 O.2    84  GLY84      -0.2717
     93  N        148.3290    9.1220  153.7350 N.am   85  ALA85      -0.1965
     94  CA       148.7490    7.9980  154.5660 C.3    85  ALA85       0.1728
     95  C        148.6890    6.6980  153.8090 C.2    85  ALA85       0.2616
     96  O        149.3470    5.7400  154.1870 O.2    85  ALA85      -0.2715
     97  CB       147.8810    7.9120  155.8190 C.3    85  ALA85       0.0334
     98  N        147.8870    6.6690  152.7470 N.am   86  THR86      -0.1951
     99  CA       147.7050    5.4490  151.9910 C.3    86  THR86       0.1897
    100  C        148.3490    5.5000  150.6020 C.2    86  THR86       0.2313
    101  O        148.8330    6.5120  150.1540 O.2    86  THR86      -0.2863
    102  CB       146.2040    5.1260  151.8460 C.3    86  THR86       0.1794
    103  OG1      145.6100    5.9230  150.8060 O.3    86  THR86      -0.2208
    104  CG2      145.4390    5.4520  153.1270 C.3    86  THR86       0.0378
    105  N        146.8460    5.5260  147.9450 N.3    88  HIS88      -0.1226
    106  CA       145.9060    6.1550  147.0330 C.3    88  HIS88       0.1752
    107  C        146.5690    7.1160  146.0440 C.2    88  HIS88       0.2596
    108  O        146.2420    7.1320  144.8440 O.2    88  HIS88      -0.2718
    109  CB       144.8680    6.8790  147.8500 C.3    88  HIS88       0.0759
    110  CG       143.5900    7.1070  147.1330 C.ar   88  HIS88       0.0818
    111  ND1      142.7060    6.0870  146.8380 N.ar   88  HIS88      -0.2268
    112  CD2      143.0250    8.2450  146.6740 C.ar   88  HIS88       0.1154
    113  CE1      141.6500    6.5930  146.2350 C.ar   88  HIS88       0.1986
    114  NE2      141.8180    7.8990  146.1170 N.ar   88  HIS88      -0.2212
    115  N        147.4980    7.9100  146.5710 N.am   89  PHE89      -0.1976
    116  CA       148.3070    8.8370  145.8010 C.3    89  PHE89       0.1639
    117  C        148.9380    8.1360  144.6030 C.2    89  PHE89       0.2290
    118  O        148.8750    8.6390  143.4870 O.2    89  PHE89      -0.2864
    119  CB       149.3660    9.4270  146.7350 C.3    89  PHE89       0.0560
    120  CG       150.4620   10.1870  146.0480 C.ar   89  PHE89      -0.0200
    121  CD1      150.4060   11.5710  145.9620 C.ar   89  PHE89      -0.0042
    122  CD2      151.5790    9.5340  145.5670 C.ar   89  PHE89      -0.0042
    123  CE1      151.4360   12.2810  145.3760 C.ar   89  PHE89      -0.0003
    124  CE2      152.6160   10.2380  144.9610 C.ar   89  PHE89      -0.0003
    125  CZ       152.5520   11.6110  144.8660 C.ar   89  PHE89      -0.0000
    126  N        146.3430    7.3130  141.8320 N.3    92  ILE92      -0.1245
    127  CA       145.8440    8.4620  141.1000 C.3    92  ILE92       0.1561
    128  C        146.9860    9.0600  140.2310 C.2    92  ILE92       0.2260
    129  O        146.7980    9.3690  139.0580 O.2    92  ILE92      -0.2867
    130  CB       145.2640    9.5200  142.0550 C.3    92  ILE92       0.0252
    131  CG1      144.0800    8.9470  142.8400 C.3    92  ILE92       0.0019
    132  CG2      144.8030   10.7480  141.2570 C.3    92  ILE92       0.0019
    133  CD1      143.6260    9.8380  143.9670 C.3    92  ILE92       0.0001
@<TRIPOS>BOND
     1    60    59    2
     2    59    58    1
     3    46    45    2
     4    58    61    1
     5    58    57    1
     6    61    62    1
     7    40    39    2
     8    45    57   am
     9    45    44    1
    10    54    56   ar
    11    54    52   ar
    12    62    63    1
    13    51    52   ar
    14    51    49   ar
    15    56    55   ar
    16     1     2    1
    17    52    50   ar
    18    39    43   am
    19    39    38    1
    20    49    48   ar
    21    44    43    1
    22    44    47    1
    23    55    53   ar
    24    50    48   ar
    25    50    53   ar
    26    36    35    2
    27    32    26    1
    28    32    31    1
    29    48    47    1
    30   129   128    2
    31     2     5    1
    32     2     3    1
    33    38    41    1
    34    38    37    1
    35    63    65   ar
    36    63    64   ar
    37    26    27    1
    38     5     6    1
    39    41    42    1
    40    35    37   am
    41    35    34    1
    42    31    30    1
    43   128   127    1
    44     3     4    2
    45    33    34    1
    46    33    28   am
    47    27    30    1
    48    27    28    1
    49   127   126    1
    50   127   130    1
    51    79    78    1
    52   132   130    1
    53    28    29    2
    54    66    67    1
    55   130   131    1
    56    78    80    1
    57    78    77    1
    58    67    68    1
    59    67    70    1
    60   131   133    1
    61    72    70    1
    62    77    74    1
    63    73    68   am
    64    73    74    1
    65   118   117    2
    66    68    69    2
    67    70    71    1
    68     7     8    1
    69    10     9    2
    70    74    75    1
    71   117   116    1
    72   108   107    2
    73   125   124   ar
    74   125   123   ar
    75    11     8    1
    76    11    12    1
    77   124   122   ar
    78     8     9    1
    79    76    75    2
    80     9    18   am
    81   123   121   ar
    82    75    81   am
    83    21    20    2
    84   122   120   ar
    85   116   115    1
    86   116   119    1
    87    20    19    1
    88   121   120   ar
    89   107   115   am
    90   107   106    1
    91   120   119    1
    92   114   113   ar
    93   114   112   ar
    94    12    13   ar
    95    12    14   ar
    96   113   111   ar
    97    22    19    1
    98    22    23    1
    99    18    19    1
   100    81    82    1
   101   112   110   ar
   102    13    15   ar
   103   111   110   ar
   104    14    16   ar
   105   106   109    1
   106   106   105    1
   107    25    23   am
   108   110   109    1
   109    23    24    2
   110    82    83    1
   111    82    85    1
   112    15    17   ar
   113    86    85    1
   114    86    88    1
   115    16    17   ar
   116    83    84    2
   117    85    87    1
   118   101   100    2
   119   100    99    1
   120   103   102    1
   121    89    90    1
   122   102    99    1
   123   102   104    1
   124    99    98    1
   125    90    91    1
   126    98    95   am
   127    92    91    2
   128    91    93   am
   129    93    94    1
   130    95    96    2
   131    95    94    1
   132    94    97    1
