@<TRIPOS>MOLECULE
tmp/1nqxB00.pdb
 121 120 0 0 0
SMALL
GASTEIGER

@<TRIPOS>ATOM
      1  N        165.3570   15.8350  124.0450 N.3    20  SER20      -0.1217
      2  CA       164.7890   16.8380  124.9260 C.3    20  SER20       0.1889
      3  C        165.8380   17.8590  125.3620 C.2    20  SER20       0.2288
      4  O        167.0620   17.6070  125.2970 O.2    20  SER20      -0.2866
      5  CB       164.1110   16.1540  126.1100 C.3    20  SER20       0.2089
      6  OG       164.9630   15.1150  126.6600 O.3    20  SER20      -0.2183
      7  N        165.7000   19.4580  128.6550 N.3    22  PHE22      -0.1227
      8  CA       165.9420   19.4530  130.1020 C.3    22  PHE22       0.1736
      9  C        167.2870   18.7210  130.3100 C.2    22  PHE22       0.2595
     10  O        167.5350   17.7050  129.6710 O.2    22  PHE22      -0.2718
     11  CB       164.7870   18.7320  130.7730 C.3    22  PHE22       0.0547
     12  CG       164.6020   19.0480  132.2290 C.ar   22  PHE22      -0.0202
     13  CD1      163.4890   19.7720  132.6480 C.ar   22  PHE22      -0.0042
     14  CD2      165.5100   18.5930  133.1790 C.ar   22  PHE22      -0.0042
     15  CE1      163.2850   20.0440  133.9990 C.ar   22  PHE22      -0.0003
     16  CE2      165.3500   18.8830  134.5110 C.ar   22  PHE22      -0.0003
     17  CZ       164.2320   19.6040  134.9360 C.ar   22  PHE22      -0.0000
     18  N        168.1590   19.2390  131.1770 N.am   23  ASN23      -0.1974
     19  CA       169.4700   18.6180  131.3810 C.3    23  ASN23       0.1688
     20  C        170.2700   18.6250  130.0930 C.2    23  ASN23       0.2292
     21  O        171.0410   17.7000  129.8430 O.2    23  ASN23      -0.2864
     22  CB       169.3300   17.1900  131.9310 C.3    23  ASN23       0.1181
     23  CG       168.8250   17.1590  133.3440 C.2    23  ASN23       0.2629
     24  OD1      169.1760   18.0310  134.1550 O.2    23  ASN23      -0.2716
     25  ND2      167.9430   16.1590  133.6650 N.am   23  ASN23      -0.0877
     26  N        160.9380   20.0410  124.7380 N.3    54  PRO54      -0.2102
     27  CA       161.2910   20.5600  126.0620 C.3    54  PRO54       0.1504
     28  C        161.8240   19.5580  127.0580 C.2    54  PRO54       0.2576
     29  O        162.8640   19.7750  127.6600 O.2    54  PRO54      -0.2718
     30  CB       159.9830   21.1690  126.5750 C.3    54  PRO54       0.0282
     31  CG       159.1630   21.4580  125.3660 C.3    54  PRO54       0.0208
     32  CD       159.5670   20.4270  124.3320 C.3    54  PRO54       0.0893
     33  N        161.0800   18.4960  127.2860 N.am   55  GLY55      -0.1943
     34  CA       161.4950   17.5150  128.2880 C.3    55  GLY55       0.2014
     35  C        161.2120   16.1010  127.8640 C.2    55  GLY55       0.2640
     36  O        160.6670   15.8740  126.7920 O.2    55  GLY55      -0.2714
     37  N        161.6270   15.1370  128.6850 N.am   56  SER56      -0.1935
     38  CA       161.4270   13.7400  128.3510 C.3    56  SER56       0.2055
     39  C        159.9470   13.4440  128.1360 C.2    56  SER56       0.2643
     40  O        159.6050   12.6300  127.2950 O.2    56  SER56      -0.2714
     41  CB       162.0220   12.8510  129.4370 C.3    56  SER56       0.2130
     42  OG       163.4390   12.8800  129.3430 O.3    56  SER56      -0.2179
     43  N        159.0830   14.1210  128.9030 N.am   57  TRP57      -0.1959
     44  CA       157.6410   13.9400  128.7790 C.3    57  TRP57       0.1771
     45  C        157.1590   14.0840  127.3120 C.2    57  TRP57       0.2619
     46  O        156.2420   13.3680  126.8310 O.2    57  TRP57      -0.2715
     47  CB       156.9010   14.9470  129.6660 C.3    57  TRP57       0.0590
     48  CG       155.4300   14.8340  129.5660 C.ar   57  TRP57       0.0006
     49  CD1      154.5970   15.6210  128.8230 C.ar   57  TRP57       0.0946
     50  CD2      154.5980   13.8630  130.2010 C.ar   57  TRP57       0.0152
     51  NE1      153.3020   15.1820  128.9440 N.ar   57  TRP57      -0.2442
     52  CE2      153.2640   14.1460  129.8240 C.ar   57  TRP57       0.0810
     53  CE3      154.8290   12.8140  131.1010 C.ar   57  TRP57       0.0012
     54  CZ2      152.1900   13.3660  130.2410 C.ar   57  TRP57       0.0191
     55  CZ3      153.7530   12.0650  131.5380 C.ar   57  TRP57       0.0001
     56  CH2      152.4470   12.3540  131.0950 C.ar   57  TRP57       0.0015
     57  N        157.7730   15.0380  126.6340 N.am   58  GLU58      -0.1977
     58  CA       157.3940   15.4150  125.2840 C.3    58  GLU58       0.1602
     59  C        158.0520   14.5910  124.1780 C.2    58  GLU58       0.2287
     60  O        157.6670   14.6840  123.0090 O.2    58  GLU58      -0.2864
     61  CB       157.7050   16.8830  125.0800 C.3    58  GLU58       0.0415
     62  CG       156.7570   17.8240  125.8280 C.3    58  GLU58       0.1163
     63  CD       157.1070   18.0670  127.2680 C.2    58  GLU58       0.3649
     64  OE1      158.2850   17.9070  127.6740 O.co2  58  GLU58      -0.2457
     65  OE2      156.1460   18.4200  128.0230 O.co2  58  GLU58      -0.2457
     66  N        167.5380   12.9580  129.2620 N.3    80  VAL80      -0.1231
     67  CA       168.1930   12.6690  130.5450 C.3    80  VAL80       0.1692
     68  C        167.2520   12.9920  131.6850 C.2    80  VAL80       0.2592
     69  O        166.8190   14.1350  131.8670 O.2    80  VAL80      -0.2718
     70  CB       169.5070   13.4410  130.6920 C.3    80  VAL80       0.0266
     71  CG1      170.0980   13.2530  132.0800 C.3    80  VAL80       0.0020
     72  CG2      170.5080   13.0070  129.6320 C.3    80  VAL80       0.0020
     73  N        166.8570   11.9490  132.3950 N.am   81  LEU81      -0.1966
     74  CA       166.0670   12.0510  133.6060 C.3    81  LEU81       0.1728
     75  C        166.9830   11.7890  134.8090 C.2    81  LEU81       0.2616
     76  O        167.7370   10.8140  134.8340 O.2    81  LEU81      -0.2715
     77  CB       164.9320   11.0270  133.6040 C.3    81  LEU81       0.0311
     78  CG       163.7270   11.4130  132.7390 C.3    81  LEU81       0.0022
     79  CD1      163.0250   10.2230  132.2070 C.3    81  LEU81       0.0001
     80  CD2      162.8010   12.2780  133.5790 C.3    81  LEU81       0.0001
     81  N        166.9220   12.7010  135.7750 N.am   82  ILE82      -0.1977
     82  CA       167.6610   12.5980  137.0150 C.3    82  ILE82       0.1596
     83  C        166.6670   12.7380  138.1690 C.2    82  ILE82       0.2287
     84  O        165.9040   13.6960  138.2230 O.2    82  ILE82      -0.2864
     85  CB       168.7560   13.6640  137.1480 C.3    82  ILE82       0.0276
     86  CG1      169.7930   13.5270  136.0210 C.3    82  ILE82       0.0022
     87  CG2      169.4960   13.4920  138.4940 C.3    82  ILE82       0.0022
     88  CD1      170.7220   14.7100  135.8940 C.3    82  ILE82       0.0001
     89  N        164.7540   13.6890  141.2880 N.3    84  GLY84      -0.1225
     90  CA       164.7230   14.8110  142.1930 C.3    84  GLY84       0.1811
     91  C        164.2540   14.4000  143.5860 C.2    84  GLY84       0.2280
     92  O        164.4180   13.2440  144.0510 O.2    84  GLY84      -0.2866
     93  N        158.1790   12.5860  140.9440 N.3    88  HIS88      -0.1226
     94  CA       157.9240   13.0340  139.5960 C.3    88  HIS88       0.1752
     95  C        158.7010   12.2250  138.5580 C.2    88  HIS88       0.2596
     96  O        158.1310   11.8300  137.5410 O.2    88  HIS88      -0.2718
     97  CB       158.2600   14.5110  139.4610 C.3    88  HIS88       0.0759
     98  CG       157.4130   15.1940  138.4420 C.ar   88  HIS88       0.0818
     99  ND1      156.0460   15.3790  138.6090 N.ar   88  HIS88      -0.2268
    100  CD2      157.7200   15.6850  137.2230 C.ar   88  HIS88       0.1154
    101  CE1      155.5740   16.0140  137.5560 C.ar   88  HIS88       0.1986
    102  NE2      156.5670   16.1990  136.6960 N.ar   88  HIS88      -0.2212
    103  N        159.9870   11.9850  138.8430 N.am   89  PHE89      -0.1976
    104  CA       160.8720   11.1980  137.9850 C.3    89  PHE89       0.1639
    105  C        160.2440    9.8870  137.5840 C.2    89  PHE89       0.2290
    106  O        160.3180    9.4790  136.4280 O.2    89  PHE89      -0.2864
    107  CB       162.1740   10.9870  138.7560 C.3    89  PHE89       0.0560
    108  CG       163.1130    9.9680  138.1720 C.ar   89  PHE89      -0.0200
    109  CD1      164.1760   10.3680  137.3990 C.ar   89  PHE89      -0.0042
    110  CD2      162.9990    8.6240  138.4890 C.ar   89  PHE89      -0.0042
    111  CE1      165.1000    9.4370  136.9090 C.ar   89  PHE89      -0.0003
    112  CE2      163.9010    7.6920  137.9680 C.ar   89  PHE89      -0.0003
    113  CZ       164.9560    8.1220  137.1920 C.ar   89  PHE89      -0.0000
    114  N        157.3400   10.3510  134.9560 N.3    92  ILE92      -0.1245
    115  CA       157.8790   10.7260  133.6430 C.3    92  ILE92       0.1561
    116  C        158.6400    9.5440  132.9770 C.2    92  ILE92       0.2260
    117  O        158.3740    9.1800  131.8380 O.2    92  ILE92      -0.2867
    118  CB       158.7940   11.9540  133.7110 C.3    92  ILE92       0.0252
    119  CG1      158.1040   13.1950  134.3150 C.3    92  ILE92       0.0019
    120  CG2      159.2860   12.3490  132.2960 C.3    92  ILE92       0.0019
    121  CD1      156.6760   13.3500  133.9600 C.3    92  ILE92       0.0001
@<TRIPOS>BOND
     1    60    59    2
     2     1     2    1
     3    59    58    1
     4    32    26    1
     5    32    31    1
     6    26    27    1
     7     2     3    1
     8     2     5    1
     9    61    58    1
    10    61    62    1
    11    58    57    1
    12     4     3    2
    13    31    30    1
    14    62    63    1
    15    27    30    1
    16    27    28    1
    17     5     6    1
    18    57    45   am
    19    36    35    2
    20    46    45    2
    21    28    33   am
    22    28    29    2
    23    63    64   ar
    24    63    65   ar
    25    33    34    1
    26    40    39    2
    27    45    44    1
    28    35    34    1
    29    35    37   am
    30    39    38    1
    31    39    43   am
    32    38    37    1
    33    38    41    1
    34     7     8    1
    35    44    43    1
    36    44    47    1
    37    49    51   ar
    38    49    48   ar
    39    51    52   ar
    40    66    67    1
    41    42    41    1
    42    48    47    1
    43    48    50   ar
    44    72    70    1
    45    10     9    2
    46    52    50   ar
    47    52    54   ar
    48    21    20    2
    49    20    19    1
    50     8     9    1
    51     8    11    1
    52    50    53   ar
    53    54    56   ar
    54     9    18   am
    55    67    70    1
    56    67    68    1
    57    70    71    1
    58    11    12    1
    59    56    55   ar
    60    53    55   ar
    61    18    19    1
    62    19    22    1
    63    68    69    2
    64    68    73   am
    65   117   116    2
    66    22    23    1
    67    79    78    1
    68    12    13   ar
    69    12    14   ar
    70   120   118    1
    71    73    74    1
    72    13    15   ar
    73    78    80    1
    74    78    77    1
    75   116   115    1
    76    14    16   ar
    77    23    25   am
    78    23    24    2
    79    77    74    1
    80    74    75    1
    81   115   118    1
    82   115   114    1
    83   118   119    1
    84   121   119    1
    85    15    17   ar
    86    16    17   ar
    87    75    76    2
    88    75    81   am
    89    81    82    1
    90    88    86    1
    91    86    85    1
    92   106   105    2
    93   102   100   ar
    94   102   101   ar
    95   111   113   ar
    96   111   109   ar
    97    82    85    1
    98    82    83    1
    99    85    87    1
   100   113   112   ar
   101   100    98   ar
   102   109   108   ar
   103    96    95    2
   104   101    99   ar
   105   105   104    1
   106   112   110   ar
   107   104   107    1
   108   104   103    1
   109    83    84    2
   110   108   110   ar
   111   108   107    1
   112    98    99   ar
   113    98    97    1
   114    95   103   am
   115    95    94    1
   116    97    94    1
   117    94    93    1
   118    89    90    1
   119    90    91    1
   120    91    92    2
