@<TRIPOS>MOLECULE
tmp/1nr6A01.pdb
 146 135 0 0 0
SMALL
GASTEIGER

@<TRIPOS>ATOM
      1  N        -19.7000  -14.6710  -20.5720 N.3    71  ARG71      -0.1245
      2  CA       -18.4080  -14.1600  -20.9930 C.3    71  ARG71       0.1563
      3  C        -17.9440  -13.2020  -19.9070 C.2    71  ARG71       0.2260
      4  O        -18.6240  -12.2240  -19.5840 O.2    71  ARG71      -0.2867
      5  CB       -18.4900  -13.4470  -22.3450 C.3    71  ARG71       0.0307
      6  CG       -17.1700  -12.8310  -22.7840 C.3    71  ARG71       0.0489
      7  CD       -16.0350  -13.8650  -22.8170 C.3    71  ARG71       0.2205
      8  NE       -16.1760  -14.8470  -23.8960 N.pl3  71  ARG71      -0.0865
      9  CZ       -15.7220  -16.0960  -23.8420 C.cat  71  ARG71       0.5346
     10  NH1      -15.8860  -16.9060  -24.8810 N.pl3  71  ARG71       0.1354
     11  NH2      -15.1200  -16.5460  -22.7480 N.pl3  71  ARG71       0.1354
     12  N        -13.7680   -8.5620  -20.1600 N.3    74  VAL74      -0.1245
     13  CA       -12.8440   -8.4200  -21.2790 C.3    74  VAL74       0.1561
     14  C        -12.9320   -6.9650  -21.7660 C.2    74  VAL74       0.2260
     15  O        -13.3080   -6.6780  -22.9020 O.2    74  VAL74      -0.2867
     16  CB       -13.1790   -9.4380  -22.3900 C.3    74  VAL74       0.0252
     17  CG1      -14.6670   -9.4000  -22.7050 C.3    74  VAL74       0.0019
     18  CG2      -12.3100   -9.1870  -23.6250 C.3    74  VAL74       0.0019
     19  N        -12.1530   -4.2570  -25.3730 N.3    77  LEU77      -0.1245
     20  CA       -12.5190   -5.1840  -26.4410 C.3    77  LEU77       0.1561
     21  C        -14.0020   -5.5050  -26.3770 C.2    77  LEU77       0.2260
     22  O        -14.6650   -5.5850  -27.4070 O.2    77  LEU77      -0.2867
     23  CB       -11.7110   -6.4710  -26.3100 C.3    77  LEU77       0.0270
     24  CG       -10.2280   -6.2960  -26.6270 C.3    77  LEU77       0.0019
     25  CD1       -9.3790   -7.2300  -25.7930 C.3    77  LEU77       0.0001
     26  CD2       -9.9960   -6.4970  -28.1170 C.3    77  LEU77       0.0001
     27  N        -17.9730  -13.3260  -29.3530 N.3    87  ALA87      -0.1231
     28  CA       -16.9890  -13.5100  -28.2960 C.3    87  ALA87       0.1694
     29  C        -17.2440  -12.8010  -26.9840 C.2    87  ALA87       0.2592
     30  O        -17.0210  -13.3720  -25.9210 O.2    87  ALA87      -0.2718
     31  CB       -15.6090  -13.1500  -28.8050 C.3    87  ALA87       0.0304
     32  N        -17.7240  -11.5680  -27.0590 N.am   88  PHE88      -0.1976
     33  CA       -17.9480  -10.7830  -25.8580 C.3    88  PHE88       0.1639
     34  C        -19.3950  -10.4470  -25.5630 C.2    88  PHE88       0.2290
     35  O        -19.6890   -9.6300  -24.6880 O.2    88  PHE88      -0.2864
     36  CB       -17.0960   -9.5210  -25.9260 C.3    88  PHE88       0.0560
     37  CG       -15.6650   -9.7960  -26.2640 C.ar   88  PHE88      -0.0200
     38  CD1      -15.0640   -9.1880  -27.3540 C.ar   88  PHE88      -0.0042
     39  CD2      -14.9250  -10.6870  -25.5070 C.ar   88  PHE88      -0.0042
     40  CE1      -13.7410   -9.4680  -27.6820 C.ar   88  PHE88      -0.0003
     41  CE2      -13.6070  -10.9720  -25.8260 C.ar   88  PHE88      -0.0003
     42  CZ       -13.0130  -10.3630  -26.9140 C.ar   88  PHE88      -0.0000
     43  N         -5.3270   -5.7120  -37.5490 N.3   175  LEU175     -0.1245
     44  CA        -5.7840   -6.7880  -36.6710 C.3   175  LEU175      0.1561
     45  C         -4.6970   -7.0460  -35.6580 C.2   175  LEU175      0.2260
     46  O         -4.9460   -6.9490  -34.4700 O.2   175  LEU175     -0.2867
     47  CB        -6.0810   -8.0840  -37.4510 C.3   175  LEU175      0.0270
     48  CG        -7.4980   -8.3730  -37.9840 C.3   175  LEU175      0.0019
     49  CD1       -7.4760   -9.5680  -38.9390 C.3   175  LEU175      0.0001
     50  CD2       -8.4500   -8.6600  -36.8250 C.3   175  LEU175      0.0001
     51  N         -3.9570   -4.1540  -33.1150 N.3   178  ASN178     -0.1225
     52  CA        -5.0710   -4.1120  -32.1750 C.3   178  ASN178      0.1785
     53  C         -5.0310   -5.2480  -31.1390 C.2   178  ASN178      0.2597
     54  O         -5.2910   -5.0090  -29.9560 O.2   178  ASN178     -0.2718
     55  CB        -6.3960   -4.1180  -32.9370 C.3   178  ASN178      0.1169
     56  CG        -7.5580   -3.6640  -32.0890 C.2   178  ASN178      0.2627
     57  OD1       -7.8940   -2.4750  -32.0520 O.2   178  ASN178     -0.2716
     58  ND2       -8.1840   -4.6060  -31.4030 N.am  178  ASN178     -0.0877
     59  N         -4.6850   -6.4690  -31.5550 N.am  179  VAL179     -0.1980
     60  CA        -4.6240   -7.5590  -30.5890 C.3   179  VAL179      0.1595
     61  C         -3.3820   -7.4290  -29.7140 C.2   179  VAL179      0.2287
     62  O         -3.3780   -7.8740  -28.5660 O.2   179  VAL179     -0.2864
     63  CB        -4.6760   -8.9680  -31.2330 C.3   179  VAL179      0.0276
     64  CG1       -3.3540   -9.3150  -31.9380 C.3   179  VAL179      0.0022
     65  CG2       -4.9980   -9.9970  -30.1570 C.3   179  VAL179      0.0022
     66  N         -4.1660   -4.5120  -27.1030 N.3   182  LEU182     -0.1245
     67  CA        -5.1280   -5.0850  -26.1760 C.3   182  LEU182      0.1561
     68  C         -4.7410   -6.5260  -25.8830 C.2   182  LEU182      0.2260
     69  O         -5.4830   -7.4620  -26.1780 O.2   182  LEU182     -0.2867
     70  CB        -6.5430   -5.0010  -26.7490 C.3   182  LEU182      0.0270
     71  CG        -7.0730   -3.5680  -26.8200 C.3   182  LEU182      0.0019
     72  CD1       -8.5000   -3.5620  -27.3340 C.3   182  LEU182      0.0001
     73  CD2       -6.9980   -2.9240  -25.4440 C.3   182  LEU182      0.0001
     74  N        -15.9340   -9.1020  -37.1640 N.3   263  SER263     -0.1202
     75  CA       -14.7050   -8.6500  -36.5050 C.3   263  SER263      0.2020
     76  C        -14.2250   -9.7070  -35.5260 C.2   263  SER263      0.2618
     77  O        -13.0370   -9.9940  -35.4580 O.2   263  SER263     -0.2717
     78  CB       -14.9300   -7.3440  -35.7400 C.3   263  SER263      0.2103
     79  OG       -14.9960   -6.2640  -36.6430 O.3   263  SER263     -0.2182
     80  N        -15.1630  -10.2810  -34.7810 N.am  264  ASP264     -0.1973
     81  CA       -14.8620  -11.3110  -33.7990 C.3   264  ASP264      0.1709
     82  C        -14.2420  -12.5650  -34.4090 C.2   264  ASP264      0.2293
     83  O        -13.2490  -13.0710  -33.8910 O.2   264  ASP264     -0.2864
     84  CB       -16.1240  -11.6950  -33.0250 C.3   264  ASP264      0.1436
     85  CG       -16.5460  -10.6360  -32.0270 C.2   264  ASP264      0.3671
     86  OD1      -17.6040  -10.8310  -31.3790 O.co2 264  ASP264     -0.2456
     87  OD2      -15.8250   -9.6210  -31.8820 O.co2 264  ASP264     -0.2456
     88  N        -10.8820  -11.7540  -35.5130 N.3   267  GLY267     -0.1210
     89  CA       -10.0640  -11.5930  -34.3190 C.3   267  GLY267      0.1956
     90  C         -9.7400  -12.9020  -33.6220 C.2   267  GLY267      0.2611
     91  O         -8.6080  -13.1330  -33.2000 O.2   267  GLY267     -0.2717
     92  N        -10.7310  -13.7760  -33.5260 N.am  268  ALA268     -0.1979
     93  CA       -10.5410  -15.0620  -32.8770 C.3   268  ALA268      0.1597
     94  C         -9.8440  -16.1190  -33.7410 C.2   268  ALA268      0.2287
     95  O         -9.1250  -16.9620  -33.2140 O.2   268  ALA268     -0.2864
     96  CB       -11.8800  -15.5950  -32.3930 C.3   268  ALA268      0.0319
     97  N         -5.1180  -14.8030  -35.5060 N.3   271  GLU271     -0.1231
     98  CA        -3.9290  -14.9010  -34.6660 C.3   271  GLU271      0.1699
     99  C         -3.7110  -16.2800  -34.0520 C.2   271  GLU271      0.2592
    100  O         -2.5820  -16.7490  -33.9690 O.2   271  GLU271     -0.2718
    101  CB        -3.9840  -13.8080  -33.5940 C.3   271  GLU271      0.0402
    102  CG        -2.7070  -13.6150  -32.7750 C.3   271  GLU271      0.1161
    103  CD        -2.6360  -14.5440  -31.5680 C.2   271  GLU271      0.3649
    104  OE1       -1.5720  -14.6070  -30.9100 O.co2 271  GLU271     -0.2457
    105  OE2       -3.6510  -15.2080  -31.2700 O.co2 271  GLU271     -0.2457
    106  N         -4.7890  -16.9300  -33.6340 N.am  272  THR272     -0.1953
    107  CA        -4.6910  -18.2580  -33.0300 C.3   272  THR272      0.1897
    108  C         -4.1560  -19.3190  -34.0000 C.2   272  THR272      0.2313
    109  O         -3.2280  -20.0640  -33.6760 O.2   272  THR272     -0.2863
    110  CB        -6.0560  -18.7240  -32.5170 C.3   272  THR272      0.1794
    111  OG1       -7.0390  -18.4950  -33.5370 O.3   272  THR272     -0.2208
    112  CG2       -6.4320  -17.9680  -31.2550 C.3   272  THR272      0.0378
    113  N         -3.8550  -20.8710  -25.4120 N.3   333  LEU333     -0.1245
    114  CA        -4.5470  -19.9880  -24.4780 C.3   333  LEU333      0.1561
    115  C         -4.5200  -20.6790  -23.1100 C.2   333  LEU333      0.2260
    116  O         -5.4830  -21.3430  -22.7170 O.2   333  LEU333     -0.2867
    117  CB        -5.9690  -19.7300  -24.9710 C.3   333  LEU333      0.0270
    118  CG        -5.9750  -18.9530  -26.2990 C.3   333  LEU333      0.0019
    119  CD1       -7.0370  -19.4860  -27.2520 C.3   333  LEU333      0.0001
    120  CD2       -6.1880  -17.4810  -26.0320 C.3   333  LEU333      0.0001
    121  N        -10.4200  -18.1630  -22.3790 N.3   337  LEU337     -0.1245
    122  CA       -10.9330  -16.8180  -22.4980 C.3   337  LEU337      0.1561
    123  C        -11.7810  -16.7190  -21.2190 C.2   337  LEU337      0.2260
    124  O        -12.3880  -17.7150  -20.7910 O.2   337  LEU337     -0.2867
    125  CB       -11.8060  -16.7020  -23.7420 C.3   337  LEU337      0.0270
    126  CG       -11.5670  -15.4390  -24.5690 C.3   337  LEU337      0.0019
    127  CD1      -10.0810  -15.2550  -24.8510 C.3   337  LEU337      0.0001
    128  CD2      -12.3740  -15.5130  -25.8540 C.3   337  LEU337      0.0001
    129  N         -3.0100  -12.9560  -24.6730 N.3   447  PHE447     -0.1227
    130  CA        -3.7510  -14.1110  -24.1720 C.3   447  PHE447      0.1736
    131  C         -3.0430  -15.3730  -24.6520 C.2   447  PHE447      0.2595
    132  O         -3.2320  -16.4620  -24.1060 O.2   447  PHE447     -0.2718
    133  CB        -5.1590  -14.1300  -24.7670 C.3   447  PHE447      0.0547
    134  CG        -6.0280  -13.0250  -24.2870 C.ar  447  PHE447     -0.0202
    135  CD1       -6.9730  -13.2580  -23.2990 C.ar  447  PHE447     -0.0042
    136  CD2       -5.8800  -11.7350  -24.7990 C.ar  447  PHE447     -0.0042
    137  CE1       -7.7580  -12.2250  -22.8220 C.ar  447  PHE447     -0.0003
    138  CE2       -6.6560  -10.6920  -24.3300 C.ar  447  PHE447     -0.0003
    139  CZ        -7.5980  -10.9340  -23.3400 C.ar  447  PHE447     -0.0000
    140  N         -2.2000  -15.1890  -25.6610 N.am  448  VAL448     -0.1980
    141  CA        -1.5120  -16.2770  -26.3240 C.3   448  VAL448      0.1595
    142  C         -0.0360  -16.5660  -26.0440 C.2   448  VAL448      0.2287
    143  O          0.7900  -15.6580  -25.8910 O.2   448  VAL448     -0.2864
    144  CB        -1.7350  -16.1060  -27.8470 C.3   448  VAL448      0.0276
    145  CG1       -0.9760  -17.1410  -28.6420 C.3   448  VAL448      0.0022
    146  CG2       -3.2260  -16.1840  -28.1490 C.3   448  VAL448      0.0022
@<TRIPOS>BOND
     1    49    48    1
     2    48    47    1
     3    48    50    1
     4    43    44    1
     5    47    44    1
     6    74    75    1
     7    44    45    1
     8    79    78    1
     9    75    78    1
    10    75    76    1
    11    45    46    2
    12    76    77    2
    13    76    80   am
    14    88    89    1
    15    97    98    1
    16    80    81    1
    17    98    99    1
    18    98   101    1
    19    82    83    2
    20    82    81    1
    21    89    90    1
    22    99   100    2
    23    99   106   am
    24   108   109    2
    25   108   107    1
    26    81    84    1
    27    94    95    2
    28    94    93    1
    29   106   107    1
    30    90    92   am
    31    90    91    2
    32   101   102    1
    33   111   110    1
    34    92    93    1
    35    51    52    1
    36   107   110    1
    37    84    85    1
    38    55    52    1
    39    55    56    1
    40    93    96    1
    41   102   103    1
    42   110   112    1
    43    52    53    1
    44    56    57    2
    45    56    58   am
    46    85    87   ar
    47    85    86   ar
    48    64    63    1
    49   103   105   ar
    50   103   104   ar
    51    59    53   am
    52    59    60    1
    53    63    60    1
    54    63    65    1
    55    53    54    2
    56    60    61    1
    57    61    62    2
    58    27    28    1
    59    31    28    1
    60   145   144    1
    61    28    29    1
    62   146   144    1
    63    26    24    1
    64   144   141    1
    65    40    38   ar
    66    40    42   ar
    67    22    21    2
    68    38    37   ar
    69    72    71    1
    70   119   118    1
    71    66    67    1
    72    32    29   am
    73    32    33    1
    74    29    30    2
    75    42    41   ar
    76    71    70    1
    77    71    73    1
    78    70    67    1
    79    24    23    1
    80    24    25    1
    81    20    21    1
    82    20    23    1
    83    20    19    1
    84   141   142    1
    85   141   140    1
    86   118   120    1
    87   118   117    1
    88    37    36    1
    89    37    39   ar
    90    69    68    2
    91    67    68    1
    92   142   143    2
    93    36    33    1
    94    33    34    1
    95   128   126    1
    96    41    39   ar
    97   140   131   am
    98    34    35    2
    99   113   114    1
   100   117   114    1
   101    10     9    1
   102   127   126    1
   103   136   138   ar
   104   136   134   ar
   105   133   134    1
   106   133   130    1
   107   129   130    1
   108   131   130    1
   109   131   132    2
   110   126   125    1
   111   114   115    1
   112   138   139   ar
   113   134   135   ar
   114     8     9    2
   115     8     7    1
   116     9    11    1
   117   125   122    1
   118    18    16    1
   119   139   137   ar
   120   135   137   ar
   121   115   116    2
   122    15    14    2
   123     7     6    1
   124     6     5    1
   125    17    16    1
   126   122   121    1
   127   122   123    1
   128    16    13    1
   129     5     2    1
   130    14    13    1
   131    13    12    1
   132   123   124    2
   133     2     1    1
   134     2     3    1
   135     3     4    2
