@<TRIPOS>MOLECULE
tmp/1nrgA00.pdb
 122 116 0 0 0
SMALL
GASTEIGER

@<TRIPOS>ATOM
      1  N         39.1690    6.0080   24.4180 N.3    29  GLU29      -0.1245
      2  CA        38.1510    6.5960   25.2900 C.3    29  GLU29       0.1567
      3  C         37.3490    5.4590   25.9340 C.2    29  GLU29       0.2260
      4  O         36.4760    4.8880   25.3030 O.2    29  GLU29      -0.2867
      5  CB        37.1760    7.4940   24.5020 C.3    29  GLU29       0.0388
      6  CG        37.6330    8.0270   23.1410 C.3    29  GLU29       0.1160
      7  CD        37.5410    6.9870   22.0350 C.2    29  GLU29       0.3649
      8  OE1       38.4620    6.1480   21.9220 O.co2  29  GLU29      -0.2457
      9  OE2       36.5410    7.0030   21.2860 O.co2  29  GLU29      -0.2457
     10  N         33.6260    5.8740   25.9630 N.3    32  ALA32      -0.1245
     11  CA        32.8840    5.8470   24.7030 C.3    32  ALA32       0.1562
     12  C         31.9080    4.6620   24.7800 C.2    32  ALA32       0.2260
     13  O         32.2550    3.5720   25.2250 O.2    32  ALA32      -0.2867
     14  CB        33.8300    5.6720   23.5320 C.3    32  ALA32       0.0290
     15  N         20.8180    3.8730   16.7130 N.3    46  ALA46      -0.1231
     16  CA        21.9530    3.7410   17.6260 C.3    46  ALA46       0.1694
     17  C         23.1380    4.5830   17.1410 C.2    46  ALA46       0.2592
     18  O         23.2850    4.8680   15.9340 O.2    46  ALA46      -0.2718
     19  CB        22.3650    2.2000   17.7830 C.3    46  ALA46       0.0304
     20  N         23.9470    5.0250   18.0980 N.am   47  ARG47      -0.1966
     21  CA        25.1070    5.8510   17.8060 C.3    47  ARG47       0.1729
     22  C         26.0690    5.8990   18.9830 C.2    47  ARG47       0.2616
     23  O         25.7130    5.5610   20.1200 O.2    47  ARG47      -0.2715
     24  CB        24.6720    7.2760   17.4500 C.3    47  ARG47       0.0348
     25  CG        24.2700    8.1630   18.6440 C.3    47  ARG47       0.0492
     26  CD        22.9640    7.6710   19.2720 C.3    47  ARG47       0.2205
     27  NE        21.8270    7.8340   18.3660 N.pl3  47  ARG47      -0.0865
     28  CZ        20.6620    7.2100   18.5070 C.cat  47  ARG47       0.5346
     29  NH1       20.4610    6.3450   19.5120 N.pl3  47  ARG47       0.1354
     30  NH2       19.6610    7.5020   17.6730 N.pl3  47  ARG47       0.1354
     31  N         27.2990    6.3100   18.7070 N.am   48  MET48      -0.1963
     32  CA        28.3260    6.4250   19.7490 C.3    48  MET48       0.1736
     33  C         28.1040    7.7180   20.5230 C.2    48  MET48       0.2616
     34  O         27.6760    8.7080   19.9570 O.2    48  MET48      -0.2715
     35  CB        29.7590    6.4460   19.1500 C.3    48  MET48       0.0427
     36  CG        30.1660    5.1910   18.3540 C.3    48  MET48       0.0599
     37  SD        29.9690    3.6830   19.3710 S.3    48  MET48      -0.1393
     38  CE        31.0510    4.0020   20.7220 C.3    48  MET48       0.0692
     39  N         28.4050    7.6810   21.8160 N.am   49  LEU49      -0.1963
     40  CA        28.2860    8.7930   22.7540 C.3    49  LEU49       0.1728
     41  C         29.3500    8.5990   23.8030 C.2    49  LEU49       0.2616
     42  O         29.9470    7.5240   23.9130 O.2    49  LEU49      -0.2715
     43  CB        26.9640    8.7970   23.5540 C.3    49  LEU49       0.0311
     44  CG        25.6150    9.1820   22.9760 C.3    49  LEU49       0.0022
     45  CD1       24.7170    9.4310   24.1660 C.3    49  LEU49       0.0001
     46  CD2       25.6830   10.4110   22.1040 C.3    49  LEU49       0.0001
     47  N         29.5340    9.6260   24.6190 N.am   50  LEU50      -0.1977
     48  CA        30.4920    9.5530   25.7100 C.3    50  LEU50       0.1596
     49  C         29.7420    9.5290   27.0290 C.2    50  LEU50       0.2287
     50  O         28.8290   10.3180   27.2520 O.2    50  LEU50      -0.2864
     51  CB        31.4650   10.7650   25.6850 C.3    50  LEU50       0.0297
     52  CG        32.5370   10.7630   24.5720 C.3    50  LEU50       0.0022
     53  CD1       33.4700   11.9570   24.7250 C.3    50  LEU50       0.0001
     54  CD2       33.3780    9.5180   24.6440 C.3    50  LEU50       0.0001
     55  N         29.2930   10.6230   30.6310 N.3    52  LYS52      -0.1245
     56  CA        29.7500   11.8020   31.3680 C.3    52  LYS52       0.1561
     57  C         29.2670   11.7500   32.8160 C.2    52  LYS52       0.2260
     58  O         28.4700   12.5890   33.2360 O.2    52  LYS52      -0.2867
     59  CB        29.1960   13.0710   30.7170 C.3    52  LYS52       0.0271
     60  CG        29.7000   13.2990   29.3140 C.3    52  LYS52       0.0035
     61  CD        31.1990   13.5850   29.3130 C.3    52  LYS52       0.0206
     62  CE        31.7070   13.8460   27.8890 C.3    52  LYS52       0.1093
     63  NZ        33.0470   14.4920   27.9540 N.3    52  LYS52      -0.1314
     64  N         25.2890   13.7650   27.5590 N.3    62  PHE62      -0.1227
     65  CA        24.7580   14.9980   27.0470 C.3    62  PHE62       0.1736
     66  C         24.6540   14.9830   25.5490 C.2    62  PHE62       0.2596
     67  O         25.4750   14.3770   24.9010 O.2    62  PHE62      -0.2718
     68  CB        25.6410   16.1410   27.5240 C.3    62  PHE62       0.0547
     69  CG        25.5810   16.3410   29.0120 C.ar   62  PHE62      -0.0202
     70  CD1       26.3850   15.5930   29.8630 C.ar   62  PHE62      -0.0042
     71  CD2       24.6930   17.2610   29.5610 C.ar   62  PHE62      -0.0042
     72  CE1       26.3100   15.7520   31.2320 C.ar   62  PHE62      -0.0003
     73  CE2       24.6050   17.4350   30.9370 C.ar   62  PHE62      -0.0003
     74  CZ        25.4200   16.6760   31.7800 C.ar   62  PHE62      -0.0000
     75  N         23.6290   15.6640   25.0310 N.am   63  THR63      -0.1953
     76  CA        23.3110   15.7390   23.6150 C.3    63  THR63       0.1897
     77  C         22.2670   16.8540   23.4010 C.2    63  THR63       0.2313
     78  O         21.8250   17.5320   24.3420 O.2    63  THR63      -0.2863
     79  CB        22.6800   14.3970   23.1330 C.3    63  THR63       0.1794
     80  OG1       22.6180   14.3730   21.7110 O.3    63  THR63      -0.2208
     81  CG2       21.2860   14.2540   23.6800 C.3    63  THR63       0.0378
     82  N         17.8020   16.5150   18.5930 N.3    67  SER67      -0.1202
     83  CA        18.5020   15.5820   17.7220 C.3    67  SER67       0.2020
     84  C         17.5460   14.4160   17.4950 C.2    67  SER67       0.2619
     85  O         16.4840   14.3160   18.1240 O.2    67  SER67      -0.2717
     86  CB        19.7800   15.0710   18.4160 C.3    67  SER67       0.2103
     87  OG        19.4810   14.3130   19.5900 O.3    67  SER67      -0.2182
     88  N         17.9180   13.5120   16.6110 N.am   68  ARG68      -0.1965
     89  CA        17.0790   12.3650   16.3400 C.3    68  ARG68       0.1729
     90  C         16.9540   11.4860   17.6060 C.2    68  ARG68       0.2616
     91  O         15.8920   10.9140   17.8680 O.2    68  ARG68      -0.2715
     92  CB        17.6750   11.5680   15.1490 C.3    68  ARG68       0.0348
     93  CG        16.8840   10.3430   14.6630 C.3    68  ARG68       0.0492
     94  CD        17.2680    9.0400   15.3620 C.3    68  ARG68       0.2205
     95  NE        16.6320    7.8920   14.7260 N.pl3  68  ARG68      -0.0865
     96  CZ        17.0580    7.3220   13.6010 C.cat  68  ARG68       0.5346
     97  NH1       18.1450    7.7750   12.9560 N.pl3  68  ARG68       0.1354
     98  NH2       16.3990    6.2890   13.1130 N.pl3  68  ARG68       0.1354
     99  N         18.0300   11.3730   18.3890 N.am   69  LYS69      -0.1977
    100  CA        18.0020   10.5240   19.6010 C.3    69  LYS69       0.1596
    101  C         17.1860   11.2050   20.6710 C.2    69  LYS69       0.2287
    102  O         16.4940   10.5410   21.4520 O.2    69  LYS69      -0.2864
    103  CB        19.4290   10.2300   20.1300 C.3    69  LYS69       0.0298
    104  CG        20.0560   11.3580   20.9800 C.3    69  LYS69       0.0038
    105  CD        21.5840   11.1660   21.2680 C.3    69  LYS69       0.0206
    106  CE        22.4500   11.5040   20.0240 C.3    69  LYS69       0.1093
    107  NZ        22.1960   12.9040   19.4340 N.3    69  LYS69      -0.1314
    108  N         21.8330   19.8870   15.7810 N.3   126  GLN126     -0.1231
    109  CA        22.2160   18.4850   15.6340 C.3   126  GLN126      0.1698
    110  C         21.1950   17.6070   14.9350 C.2   126  GLN126      0.2592
    111  O         20.0580   17.4830   15.3920 O.2   126  GLN126     -0.2718
    112  CB        22.5740   17.8990   17.0180 C.3   126  GLN126      0.0381
    113  CG        23.0700   16.4160   16.9900 C.3   126  GLN126      0.0905
    114  CD        23.5730   15.9370   18.3420 C.2   126  GLN126      0.2608
    115  OE1       22.7880   15.7440   19.2680 O.2   126  GLN126     -0.2717
    116  NE2       24.8860   15.7440   18.4610 N.am  126  GLN126     -0.0878
    117  N         21.6260   17.0460   13.8120 N.am  127  SER127     -0.1952
    118  CA        20.8710   16.1210   12.9600 C.3   127  SER127      0.1924
    119  C         19.9060   16.7640   11.9740 C.2   127  SER127      0.2314
    120  O         19.2310   16.0600   11.2310 O.2   127  SER127     -0.2863
    121  CB        20.1380   15.0800   13.8100 C.3   127  SER127      0.2116
    122  OG        21.0510   14.4010   14.6440 O.3   127  SER127     -0.2180
@<TRIPOS>BOND
     1   120   119    2
     2   119   118    1
     3    97    96    1
     4   118   121    1
     5   118   117    1
     6    98    96    1
     7    96    95    2
     8   121   122    1
     9   117   110   am
    10    93    92    1
    11    93    94    1
    12    95    94    1
    13   110   111    2
    14   110   109    1
    15    92    89    1
    16   109   108    1
    17   109   112    1
    18    18    17    2
    19    89    88    1
    20    89    90    1
    21    88    84   am
    22    15    16    1
    23   113   112    1
    24   113   114    1
    25    17    16    1
    26    17    20   am
    27    24    21    1
    28    24    25    1
    29    84    83    1
    30    84    85    2
    31    90    91    2
    32    90    99   am
    33    16    19    1
    34    30    28    1
    35    83    86    1
    36    83    82    1
    37    21    20    1
    38    21    22    1
    39   114   116   am
    40   114   115    2
    41    36    35    1
    42    36    37    1
    43    27    28    2
    44    27    26    1
    45    99   100    1
    46    86    87    1
    47    28    29    1
    48    25    26    1
    49    31    22   am
    50    31    32    1
    51    22    23    2
    52    35    32    1
    53    37    38    1
    54   107   106    1
    55   100   103    1
    56   100   101    1
    57    32    33    1
    58    34    33    2
    59   106   105    1
    60   103   104    1
    61    33    39   am
    62   101   102    2
    63   104   105    1
    64     9     7   ar
    65    80    79    1
    66    39    40    1
    67     8     7   ar
    68     7     6    1
    69    46    44    1
    70    40    43    1
    71    40    41    1
    72    44    43    1
    73    44    45    1
    74    79    76    1
    75    79    81    1
    76     6     5    1
    77    77    76    1
    78    77    78    2
    79    14    11    1
    80    76    75    1
    81    41    42    2
    82    41    47   am
    83     1     2    1
    84     5     2    1
    85    52    54    1
    86    52    53    1
    87    52    51    1
    88    47    48    1
    89    11    12    1
    90    11    10    1
    91    12    13    2
    92    67    66    2
    93    75    66   am
    94     2     3    1
    95     4     3    2
    96    66    65    1
    97    51    48    1
    98    48    49    1
    99    49    50    2
   100    65    68    1
   101    65    64    1
   102    68    69    1
   103    62    63    1
   104    62    61    1
   105    69    71   ar
   106    69    70   ar
   107    61    60    1
   108    60    59    1
   109    71    73   ar
   110    70    72   ar
   111    55    56    1
   112    59    56    1
   113    73    74   ar
   114    72    74   ar
   115    56    57    1
   116    57    58    2
