@<TRIPOS>MOLECULE
tmp/1nrgA01.pdb
 94 91 0 0 0
SMALL
GASTEIGER

@<TRIPOS>ATOM
      1  N         29.5340    9.6260   24.6190 N.3    50  LEU50      -0.1245
      2  CA        30.4920    9.5530   25.7100 C.3    50  LEU50       0.1561
      3  C         29.7420    9.5290   27.0290 C.2    50  LEU50       0.2260
      4  O         28.8290   10.3180   27.2520 O.2    50  LEU50      -0.2867
      5  CB        31.4650   10.7650   25.6850 C.3    50  LEU50       0.0270
      6  CG        32.5370   10.7630   24.5720 C.3    50  LEU50       0.0019
      7  CD1       33.4700   11.9570   24.7250 C.3    50  LEU50       0.0001
      8  CD2       33.3780    9.5180   24.6440 C.3    50  LEU50       0.0001
      9  N         29.2930   10.6230   30.6310 N.3    52  LYS52      -0.1245
     10  CA        29.7500   11.8020   31.3680 C.3    52  LYS52       0.1561
     11  C         29.2670   11.7500   32.8160 C.2    52  LYS52       0.2260
     12  O         28.4700   12.5890   33.2360 O.2    52  LYS52      -0.2867
     13  CB        29.1960   13.0710   30.7170 C.3    52  LYS52       0.0271
     14  CG        29.7000   13.2990   29.3140 C.3    52  LYS52       0.0035
     15  CD        31.1990   13.5850   29.3130 C.3    52  LYS52       0.0206
     16  CE        31.7070   13.8460   27.8890 C.3    52  LYS52       0.1093
     17  NZ        33.0470   14.4920   27.9540 N.3    52  LYS52      -0.1314
     18  N         25.2890   13.7650   27.5590 N.3    62  PHE62      -0.1227
     19  CA        24.7580   14.9980   27.0470 C.3    62  PHE62       0.1736
     20  C         24.6540   14.9830   25.5490 C.2    62  PHE62       0.2596
     21  O         25.4750   14.3770   24.9010 O.2    62  PHE62      -0.2718
     22  CB        25.6410   16.1410   27.5240 C.3    62  PHE62       0.0547
     23  CG        25.5810   16.3410   29.0120 C.ar   62  PHE62      -0.0202
     24  CD1       26.3850   15.5930   29.8630 C.ar   62  PHE62      -0.0042
     25  CD2       24.6930   17.2610   29.5610 C.ar   62  PHE62      -0.0042
     26  CE1       26.3100   15.7520   31.2320 C.ar   62  PHE62      -0.0003
     27  CE2       24.6050   17.4350   30.9370 C.ar   62  PHE62      -0.0003
     28  CZ        25.4200   16.6760   31.7800 C.ar   62  PHE62      -0.0000
     29  N         23.6290   15.6640   25.0310 N.am   63  THR63      -0.1953
     30  CA        23.3110   15.7390   23.6150 C.3    63  THR63       0.1897
     31  C         22.2670   16.8540   23.4010 C.2    63  THR63       0.2313
     32  O         21.8250   17.5320   24.3420 O.2    63  THR63      -0.2863
     33  CB        22.6800   14.3970   23.1330 C.3    63  THR63       0.1794
     34  OG1       22.6180   14.3730   21.7110 O.3    63  THR63      -0.2208
     35  CG2       21.2860   14.2540   23.6800 C.3    63  THR63       0.0378
     36  N         27.4950   21.8550   33.6820 N.3   109  TYR109     -0.1241
     37  CA        28.3130   20.9810   32.8540 C.3   109  TYR109      0.1605
     38  C         28.7290   21.6520   31.5310 C.2   109  TYR109      0.2264
     39  O         29.8860   21.5390   31.0700 O.2   109  TYR109     -0.2867
     40  CB        27.5710   19.6600   32.5540 C.3   109  TYR109      0.0534
     41  CG        28.3990   18.8060   31.6480 C.ar  109  TYR109     -0.0201
     42  CD1       28.1220   18.7300   30.2880 C.ar  109  TYR109     -0.0009
     43  CD2       29.5890   18.2250   32.1140 C.ar  109  TYR109     -0.0009
     44  CE1       29.0140   18.1240   29.4130 C.ar  109  TYR109      0.0417
     45  CE2       30.4970   17.6080   31.2520 C.ar  109  TYR109      0.0417
     46  CZ        30.2110   17.5650   29.9040 C.ar  109  TYR109      0.1957
     47  OH        31.1440   17.0200   29.0460 O.3   109  TYR109     -0.2866
     48  N         32.8810   22.7230   29.7140 N.3   113  ARG113     -0.1231
     49  CA        33.4950   22.2730   28.4830 C.3   113  ARG113      0.1679
     50  C         34.3730   23.3730   27.8740 C.2   113  ARG113      0.2434
     51  O         34.2780   24.5360   28.2450 O.2   113  ARG113     -0.2733
     52  CB        32.4190   21.8730   27.4760 C.3   113  ARG113      0.0321
     53  CG        31.3850   20.9280   28.0290 C.3   113  ARG113      0.0489
     54  CD        30.2030   20.7720   27.0470 C.3   113  ARG113      0.2205
     55  NE        30.5480   20.0180   25.8340 N.pl3 113  ARG113     -0.0865
     56  CZ        29.9890   20.2000   24.6350 C.cat 113  ARG113      0.5346
     57  NH1       30.3820   19.4590   23.6100 N.pl3 113  ARG113      0.1354
     58  NH2       29.0550   21.1270   24.4460 N.pl3 113  ARG113      0.1354
     59  N         35.2660   23.0100   26.9510 N.am  114  PRO114     -0.2729
     60  CA        36.0820   24.0760   26.3740 C.3   114  PRO114      0.1401
     61  C         35.1890   24.9940   25.5270 C.2   114  PRO114      0.2269
     62  O         34.2020   24.5460   24.9250 O.2   114  PRO114     -0.2865
     63  CB        37.1190   23.3190   25.5480 C.3   114  PRO114      0.0296
     64  CG        36.4900   21.9820   25.2870 C.3   114  PRO114      0.0237
     65  CD        35.7750   21.6820   26.5660 C.3   114  PRO114      0.0939
     66  N         33.9110   24.0090   22.2430 N.3   117  SER117     -0.1217
     67  CA        32.8970   22.9610   22.3080 C.3   117  SER117      0.1889
     68  C         31.5300   23.6060   22.5430 C.2   117  SER117      0.2288
     69  O         30.5510   23.2390   21.8940 O.2   117  SER117     -0.2866
     70  CB        33.2380   21.9470   23.4120 C.3   117  SER117      0.2089
     71  OG        33.9780   20.8480   22.8860 O.3   117  SER117     -0.2183
     72  N         21.8330   19.8870   15.7810 N.3   126  GLN126     -0.1245
     73  CA        22.2160   18.4850   15.6340 C.3   126  GLN126      0.1566
     74  C         21.1950   17.6070   14.9350 C.2   126  GLN126      0.2260
     75  O         20.0580   17.4830   15.3920 O.2   126  GLN126     -0.2867
     76  CB        22.5740   17.8990   17.0180 C.3   126  GLN126      0.0367
     77  CG        23.0700   16.4160   16.9900 C.3   126  GLN126      0.0905
     78  CD        23.5730   15.9370   18.3420 C.2   126  GLN126      0.2608
     79  OE1       22.7880   15.7440   19.2680 O.2   126  GLN126     -0.2717
     80  NE2       24.8860   15.7440   18.4610 N.am  126  GLN126     -0.0878
     81  N         19.8530   22.0990   24.3870 N.3   158  TRP158     -0.1241
     82  CA        20.9870   21.2730   24.7760 C.3   158  TRP158      0.1605
     83  C         20.9260   20.8740   26.2280 C.2   158  TRP158      0.2264
     84  O         20.6560   21.7170   27.0890 O.2   158  TRP158     -0.2867
     85  CB        22.2940   22.0220   24.5330 C.3   158  TRP158      0.0550
     86  CG        23.5290   21.1690   24.6200 C.ar  158  TRP158      0.0003
     87  CD1       24.1950   20.6050   23.5780 C.ar  158  TRP158      0.0946
     88  CD2       24.2900   20.8530   25.8000 C.ar  158  TRP158      0.0152
     89  NE1       25.3320   19.9690   24.0260 N.ar  158  TRP158     -0.2442
     90  CE2       25.4110   20.1040   25.3840 C.ar  158  TRP158      0.0810
     91  CE3       24.1330   21.1370   27.1620 C.ar  158  TRP158      0.0012
     92  CZ2       26.3770   19.6320   26.2900 C.ar  158  TRP158      0.0191
     93  CZ3       25.0940   20.6700   28.0640 C.ar  158  TRP158      0.0001
     94  CH2       26.2050   19.9240   27.6190 C.ar  158  TRP158      0.0015
@<TRIPOS>BOND
     1    74    75    2
     2    74    73    1
     3    73    72    1
     4    73    76    1
     5    77    76    1
     6    77    78    1
     7    78    80   am
     8    78    79    2
     9    34    33    1
    10    69    68    2
    11    66    67    1
    12    67    68    1
    13    67    70    1
    14    71    70    1
    15    33    30    1
    16    33    35    1
    17    31    30    1
    18    31    32    2
    19    87    89   ar
    20    87    86   ar
    21    57    56    1
    22    30    29    1
    23    89    90   ar
    24    81    82    1
    25    58    56    1
    26    85    86    1
    27    85    82    1
    28     6     8    1
    29     6     7    1
    30     6     5    1
    31     1     2    1
    32    86    88   ar
    33    56    55    2
    34    82    83    1
    35    21    20    2
    36    62    61    2
    37    29    20   am
    38    64    63    1
    39    64    65    1
    40    90    88   ar
    41    90    92   ar
    42    61    60    1
    43    63    60    1
    44    20    19    1
    45     5     2    1
    46     2     3    1
    47    88    91   ar
    48    55    54    1
    49    83    84    2
    50    92    94   ar
    51    60    59    1
    52    65    59    1
    53    59    50   am
    54     3     4    2
    55    54    53    1
    56    19    22    1
    57    19    18    1
    58    91    93   ar
    59    52    53    1
    60    52    49    1
    61    22    23    1
    62    94    93   ar
    63    50    51    2
    64    50    49    1
    65    16    17    1
    66    16    15    1
    67    49    48    1
    68    23    25   ar
    69    23    24   ar
    70    47    46    1
    71    15    14    1
    72    14    13    1
    73    44    46   ar
    74    44    42   ar
    75    25    27   ar
    76    24    26   ar
    77    46    45   ar
    78    42    41   ar
    79     9    10    1
    80    13    10    1
    81    27    28   ar
    82    39    38    2
    83    26    28   ar
    84    45    43   ar
    85    10    11    1
    86    38    37    1
    87    41    43   ar
    88    41    40    1
    89    40    37    1
    90    11    12    2
    91    37    36    1
