@<TRIPOS>MOLECULE
tmp/1nrjB00.pdb
 186 182 0 0 0
SMALL
GASTEIGER

@<TRIPOS>ATOM
      1  N         14.9390   44.3510   29.3350 N.3    12  GLN12      -0.1231
      2  CA        15.8580   45.3340   28.8080 C.3    12  GLN12       0.1698
      3  C         17.2880   44.9300   29.1240 C.2    12  GLN12       0.2592
      4  O         17.5520   44.3310   30.1530 O.2    12  GLN12      -0.2718
      5  CB        15.6030   46.6830   29.3860 C.3    12  GLN12       0.0381
      6  CG        14.3240   47.2930   28.9700 C.3    12  GLN12       0.0905
      7  CD        14.2480   48.7970   29.3130 C.2    12  GLN12       0.2608
      8  OE1       13.7830   49.2080   30.4510 O.2    12  GLN12      -0.2717
      9  NE2       14.7400   49.6520   28.3900 N.am   12  GLN12      -0.0878
     10  N         18.2050   45.2810   28.2270 N.am   13  ASN13      -0.1960
     11  CA        19.6450   45.1110   28.3920 C.3    13  ASN13       0.1819
     12  C         20.1550   43.6880   28.1310 C.2    13  ASN13       0.2622
     13  O         21.3680   43.3860   28.3430 O.2    13  ASN13      -0.2715
     14  CB        20.1970   45.6810   29.7060 C.3    13  ASN13       0.1195
     15  CG        21.7070   46.0040   29.6390 C.2    13  ASN13       0.2630
     16  OD1       22.1550   46.6740   28.7290 O.2    13  ASN13      -0.2716
     17  ND2       22.4050   45.7270   30.7050 N.am   13  ASN13      -0.0877
     18  N         19.2590   42.8030   27.6960 N.am   14  SER14      -0.1936
     19  CA        19.6210   41.3720   27.5010 C.3    14  SER14       0.2055
     20  C         20.4090   41.0670   26.2310 C.2    14  SER14       0.2644
     21  O         21.2590   40.1730   26.2470 O.2    14  SER14      -0.2714
     22  CB        18.4120   40.4430   27.5860 C.3    14  SER14       0.2130
     23  OG        17.3510   40.7430   26.7330 O.3    14  SER14      -0.2179
     24  N         20.1710   41.8090   25.1630 N.am   15  GLY15      -0.1939
     25  CA        20.8080   41.6660   23.8880 C.3    15  GLY15       0.2014
     26  C         19.9620   41.3350   22.6640 C.2    15  GLY15       0.2639
     27  O         20.5070   40.8490   21.6860 O.2    15  GLY15      -0.2714
     28  N         18.6410   41.5990   22.7590 N.am   16  LYS16      -0.1963
     29  CA        17.6810   41.2020   21.6910 C.3    16  LYS16       0.1728
     30  C         17.9850   41.9180   20.3860 C.2    16  LYS16       0.2617
     31  O         18.0880   41.2720   19.3350 O.2    16  LYS16      -0.2715
     32  CB        16.2610   41.5670   22.1440 C.3    16  LYS16       0.0311
     33  CG        15.7350   40.8620   23.4800 C.3    16  LYS16       0.0038
     34  CD        14.3550   41.2440   23.8210 C.3    16  LYS16       0.0206
     35  CE        14.1680   42.8090   24.1760 C.3    16  LYS16       0.1093
     36  NZ        14.8680   43.1310   25.3950 N.3    16  LYS16      -0.1314
     37  N         18.0960   43.2420   20.3990 N.am   17  THR17      -0.1937
     38  CA        18.4050   43.9720   19.1260 C.3    17  THR17       0.2028
     39  C         19.7820   43.6340   18.5940 C.2    17  THR17       0.2642
     40  O         20.0570   43.5560   17.3660 O.2    17  THR17      -0.2714
     41  CB        18.2110   45.5010   19.3430 C.3    17  THR17       0.1808
     42  OG1       16.9030   45.7390   19.9340 O.3    17  THR17      -0.2208
     43  CG2       18.3460   46.3570   18.0540 C.3    17  THR17       0.0379
     44  N         20.7220   43.4090   19.4950 N.am   18  SER18      -0.1949
     45  CA        22.0680   42.8970   19.1640 C.3    18  SER18       0.1924
     46  C         22.0380   41.5240   18.4230 C.2    18  SER18       0.2314
     47  O         22.7400   41.3250   17.4390 O.2    18  SER18      -0.2863
     48  CB        23.0380   42.8580   20.4170 C.3    18  SER18       0.2116
     49  OG        23.1870   44.0920   21.0680 O.3    18  SER18      -0.2180
     50  N         28.6090   43.0000   14.6330 N.3    28  VAL28      -0.1231
     51  CA        28.2510   43.4910   15.9820 C.3    28  VAL28       0.1692
     52  C         28.3570   45.0310   15.9630 C.2    28  VAL28       0.2592
     53  O         29.4010   45.5750   15.6350 O.2    28  VAL28      -0.2718
     54  CB        29.2220   42.9140   17.0500 C.3    28  VAL28       0.0266
     55  CG1       28.8570   43.4490   18.4690 C.3    28  VAL28       0.0020
     56  CG2       29.1140   41.4150   17.0720 C.3    28  VAL28       0.0020
     57  N         27.2490   45.7140   16.2510 N.am   29  ARG29      -0.1966
     58  CA        27.1560   47.1780   16.1060 C.3    29  ARG29       0.1714
     59  C         26.5670   47.8460   17.3490 C.2    29  ARG29       0.2458
     60  O         25.7830   47.1830   18.0550 O.2    29  ARG29      -0.2730
     61  CB        26.2470   47.5240   14.9490 C.3    29  ARG29       0.0347
     62  CG        26.7050   46.9450   13.6680 C.3    29  ARG29       0.0492
     63  CD        26.0180   47.5080   12.4810 C.3    29  ARG29       0.2205
     64  NE        26.5650   46.8570   11.2910 N.pl3  29  ARG29      -0.0865
     65  CZ        25.9430   46.7600   10.1420 C.cat  29  ARG29       0.5346
     66  NH1       24.7120   47.2440    9.9950 N.pl3  29  ARG29       0.1354
     67  NH2       26.5510   46.1430    9.1210 N.pl3  29  ARG29       0.1354
     68  N         26.8250   49.1380   17.5620 N.am   30  PRO30      -0.2716
     69  CA        26.2150   49.8480   18.6980 C.3    30  PRO30       0.1536
     70  C         24.7100   49.8880   18.6010 C.2    30  PRO30       0.2599
     71  O         24.0990   50.0760   17.5170 O.2    30  PRO30      -0.2715
     72  CB        26.8110   51.2520   18.6260 C.3    30  PRO30       0.0310
     73  CG        27.9570   51.1520   17.7570 C.3    30  PRO30       0.0237
     74  CD        27.7060   50.0250   16.7810 C.3    30  PRO30       0.0939
     75  N         24.0860   49.6810   19.7650 N.am   31  THR31      -0.1937
     76  CA        22.6140   49.7910   19.9260 C.3    31  THR31       0.2028
     77  C         22.2840   50.6600   21.1680 C.2    31  THR31       0.2642
     78  O         23.1370   50.8690   22.0570 O.2    31  THR31      -0.2714
     79  CB        21.9640   48.4150   20.1210 C.3    31  THR31       0.1808
     80  OG1       22.5690   47.7720   21.2530 O.3    31  THR31      -0.2208
     81  CG2       22.2850   47.4680   19.0000 C.3    31  THR31       0.0379
     82  N         21.0540   51.1670   21.1920 N.am   32  VAL32      -0.1963
     83  CA        20.4600   51.8290   22.3490 C.3    32  VAL32       0.1727
     84  C         19.0310   51.2430   22.5940 C.2    32  VAL32       0.2616
     85  O         18.5350   50.4300   21.7920 O.2    32  VAL32      -0.2715
     86  CB        20.4160   53.3730   22.1700 C.3    32  VAL32       0.0290
     87  CG1       21.8310   53.9920   22.1220 C.3    32  VAL32       0.0023
     88  CG2       19.6650   53.8070   20.9030 C.3    32  VAL32       0.0023
     89  N         18.3580   51.6610   23.6870 N.am   33  VAL33      -0.1963
     90  CA        17.0240   51.1870   24.0760 C.3    33  VAL33       0.1727
     91  C         16.0040   51.3070   22.9250 C.2    33  VAL33       0.2616
     92  O         15.8550   52.4110   22.3050 O.2    33  VAL33      -0.2715
     93  CB        16.4810   51.9660   25.2940 C.3    33  VAL33       0.0290
     94  CG1       14.9620   51.6530   25.5310 C.3    33  VAL33       0.0023
     95  CG2       17.3400   51.7510   26.5920 C.3    33  VAL33       0.0023
     96  N         15.3050   50.2130   22.6550 N.am   34  SER34      -0.1950
     97  CA        14.2840   50.1210   21.5960 C.3    34  SER34       0.1924
     98  C         12.9350   50.6010   22.0800 C.2    34  SER34       0.2314
     99  O         12.5210   50.3120   23.2040 O.2    34  SER34      -0.2863
    100  CB        14.1210   48.6830   21.0770 C.3    34  SER34       0.2116
    101  OG        15.3680   48.1370   20.7000 O.3    34  SER34      -0.2180
    102  N         12.0760   41.2100   16.8090 N.3    52  ASP52      -0.1239
    103  CA        12.6470   41.6010   18.1530 C.3    52  ASP52       0.1674
    104  C         11.7050   42.6150   18.8000 C.2    52  ASP52       0.2266
    105  O         11.4780   43.7530   18.2750 O.2    52  ASP52      -0.2867
    106  CB        14.0680   42.1960   17.8790 C.3    52  ASP52       0.1410
    107  CG        14.5500   43.2560   18.8510 C.2    52  ASP52       0.3668
    108  OD1       14.2560   43.1880   20.0990 O.co2  52  ASP52      -0.2456
    109  OD2       15.2630   44.2680   18.4630 O.co2  52  ASP52      -0.2456
    110  N         10.6470   45.2330   22.0070 N.3    54  PRO54      -0.2102
    111  CA        11.2240   45.9570   23.1700 C.3    54  PRO54       0.1504
    112  C         10.8920   45.2760   24.4730 C.2    54  PRO54       0.2576
    113  O          9.8090   44.8000   24.7200 O.2    54  PRO54      -0.2718
    114  CB        10.5880   47.3530   23.1130 C.3    54  PRO54       0.0282
    115  CG         9.9920   47.4810   21.6980 C.3    54  PRO54       0.0208
    116  CD         9.7630   46.1000   21.1840 C.3    54  PRO54       0.0893
    117  N         11.8760   45.3830   25.3630 N.am   55  GLY55      -0.1943
    118  CA        11.7170   44.8640   26.6970 C.3    55  GLY55       0.2014
    119  C         11.1880   45.7960   27.7820 C.2    55  GLY55       0.2638
    120  O         10.9080   45.3290   28.8720 O.2    55  GLY55      -0.2714
    121  N         10.9970   47.1090   27.5230 N.am   56  HIS56      -0.1973
    122  CA        10.5690   48.0200   28.5790 C.3    56  HIS56       0.1656
    123  C          9.1100   47.7360   29.1270 C.2    56  HIS56       0.2291
    124  O          8.1200   47.4890   28.4130 O.2    56  HIS56      -0.2864
    125  CB        10.5770   49.4810   28.0540 C.3    56  HIS56       0.0771
    126  CG        10.4890   50.5200   29.1250 C.ar   56  HIS56       0.0820
    127  ND1        9.2720   50.9670   29.6230 N.ar   56  HIS56      -0.2267
    128  CD2       11.4520   51.2420   29.7650 C.ar   56  HIS56       0.1154
    129  CE1        9.5090   51.8860   30.5380 C.ar   56  HIS56       0.1986
    130  NE2       10.8140   52.0480   30.6650 N.ar   56  HIS56      -0.2212
    131  N         22.7340   35.0850   27.3770 N.3   119  ASN119     -0.1225
    132  CA        23.7890   35.8800   26.6870 C.3   119  ASN119      0.1785
    133  C         24.8780   36.4500   27.6200 C.2   119  ASN119      0.2597
    134  O         24.8550   36.2980   28.8400 O.2   119  ASN119     -0.2718
    135  CB        23.0780   37.0600   25.9960 C.3   119  ASN119      0.1169
    136  CG        23.9240   37.7770   24.9660 C.2   119  ASN119      0.2627
    137  OD1       24.7540   37.2140   24.3150 O.2   119  ASN119     -0.2716
    138  ND2       23.5640   39.1010   24.7550 N.am  119  ASN119     -0.0877
    139  N         25.9550   36.8960   26.9660 N.am  120  LYS120     -0.1980
    140  CA        27.0990   37.5030   27.6580 C.3   120  LYS120      0.1596
    141  C         28.0180   36.4610   28.3690 C.2   120  LYS120      0.2287
    142  O         28.6410   36.7350   29.4050 O.2   120  LYS120     -0.2864
    143  CB        26.7740   38.7040   28.5460 C.3   120  LYS120      0.0298
    144  CG        25.6360   39.5780   27.9440 C.3   120  LYS120      0.0038
    145  CD        25.4350   40.9710   28.6980 C.3   120  LYS120      0.0206
    146  CE        24.3080   41.8230   28.1280 C.3   120  LYS120      0.1093
    147  NZ        24.0850   43.0740   28.8940 N.3   120  LYS120     -0.1314
    148  N         30.8670   35.2880   27.9490 N.3   122  GLU122     -0.1231
    149  CA        32.3470   35.5880   28.0570 C.3   122  GLU122      0.1699
    150  C         32.6270   36.3740   29.3190 C.2   122  GLU122      0.2592
    151  O         33.8490   36.4230   29.7580 O.2   122  GLU122     -0.2718
    152  CB        32.8290   36.3710   26.8650 C.3   122  GLU122      0.0402
    153  CG        32.5510   37.9050   26.8570 C.3   122  GLU122      0.1161
    154  CD        31.1950   38.3720   26.4170 C.2   122  GLU122      0.3649
    155  OE1       30.3110   37.5330   26.2640 O.co2 122  GLU122     -0.2457
    156  OE2       30.9870   39.6210   26.3080 O.co2 122  GLU122     -0.2457
    157  N         31.6300   36.9770   29.9870 N.am  123  LEU123     -0.1980
    158  CA        31.8700   37.7760   31.1770 C.3   123  LEU123      0.1596
    159  C         32.1520   36.8990   32.4000 C.2   123  LEU123      0.2287
    160  O         31.6190   35.8140   32.5070 O.2   123  LEU123     -0.2864
    161  CB        30.7460   38.7730   31.4480 C.3   123  LEU123      0.0297
    162  CG        30.4740   39.7750   30.3140 C.3   123  LEU123      0.0022
    163  CD1       29.2480   40.7400   30.7860 C.3   123  LEU123      0.0001
    164  CD2       31.5860   40.5880   29.9420 C.3   123  LEU123      0.0001
    165  N         27.3680   34.0720   23.3410 N.3   174  SER174     -0.1202
    166  CA        28.0060   35.4020   23.3620 C.3   174  SER174      0.2020
    167  C         27.9300   36.0620   22.0220 C.2   174  SER174      0.2619
    168  O         28.6540   35.7040   21.0760 O.2   174  SER174     -0.2717
    169  CB        29.4710   35.3370   23.7470 C.3   174  SER174      0.2103
    170  OG        30.0520   36.5900   23.6450 O.3   174  SER174     -0.2182
    171  N         27.1050   37.0840   21.8950 N.am  175  ILE175     -0.1965
    172  CA        27.0150   37.8720   20.6640 C.3   175  ILE175      0.1727
    173  C         28.3480   38.5720   20.3650 C.2   175  ILE175      0.2616
    174  O         28.8570   38.4780   19.2380 O.2   175  ILE175     -0.2715
    175  CB        25.8270   38.8890   20.7780 C.3   175  ILE175      0.0290
    176  CG1       24.4750   38.1240   20.7950 C.3   175  ILE175      0.0022
    177  CG2       25.8010   39.9010   19.5790 C.3   175  ILE175      0.0023
    178  CD1       23.2410   38.9720   21.1070 C.3   175  ILE175      0.0001
    179  N         28.9770   39.2290   21.3740 N.am  176  ASN176     -0.1972
    180  CA        30.2230   39.9560   21.1830 C.3   176  ASN176      0.1688
    181  C         31.4150   39.0860   20.6630 C.2   176  ASN176      0.2292
    182  O         32.2110   39.5580   19.8740 O.2   176  ASN176     -0.2864
    183  CB        30.7120   40.6830   22.5010 C.3   176  ASN176      0.1181
    184  CG        29.9930   42.0010   22.7920 C.2   176  ASN176      0.2629
    185  OD1       30.4450   42.7820   23.7010 O.2   176  ASN176     -0.2716
    186  ND2       28.8230   42.2470   22.1250 N.am  176  ASN176     -0.0877
@<TRIPOS>BOND
     1    67    65    1
     2    66    65    1
     3    65    64    2
     4    64    63    1
     5    63    62    1
     6    62    61    1
     7    50    51    1
     8    61    58    1
     9    53    52    2
    10    52    51    1
    11    52    57   am
    12    51    54    1
    13    58    57    1
    14    58    59    1
    15    74    68    1
    16    74    73    1
    17   102   103    1
    18    54    56    1
    19    54    55    1
    20    59    68   am
    21    59    60    2
    22    40    39    2
    23    47    46    2
    24    71    70    2
    25    68    69    1
    26    73    72    1
    27   106   103    1
    28   106   107    1
    29    43    41    1
    30   103   104    1
    31   105   104    2
    32    46    45    1
    33   109   107   ar
    34    39    38    1
    35    39    44   am
    36    70    69    1
    37    70    75   am
    38    72    69    1
    39   107   108   ar
    40    81    79    1
    41    38    41    1
    42    38    37    1
    43    45    44    1
    44    45    48    1
    45   174   173    2
    46    31    30    2
    47    41    42    1
    48   177   175    1
    49    75    76    1
    50   182   181    2
    51    76    79    1
    52    76    77    1
    53    79    80    1
    54   173   172    1
    55   173   179   am
    56    30    37   am
    57    30    29    1
    58    48    49    1
    59   181   180    1
    60   172   175    1
    61   172   171    1
    62   101   100    1
    63   175   176    1
    64   176   178    1
    65    88    86    1
    66   168   167    2
    67   100    97    1
    68    77    82   am
    69    77    78    2
    70   180   179    1
    71   180   183    1
    72   116   115    1
    73   116   110    1
    74    82    83    1
    75    97    98    1
    76    97    96    1
    77    27    26    2
    78    29    32    1
    79    29    28    1
    80   115   114    1
    81    85    84    2
    82   171   167   am
    83   110   111    1
    84   167   166    1
    85    98    99    2
    86    87    86    1
    87   186   184   am
    88    32    33    1
    89    86    83    1
    90    92    91    2
    91    83    84    1
    92   183   184    1
    93    84    89   am
    94    96    91   am
    95    26    28   am
    96    26    25    1
    97   184   185    2
    98    91    90    1
    99   114   111    1
   100   111   112    1
   101   165   166    1
   102   166   169    1
   103    33    34    1
   104   170   169    1
   105    89    90    1
   106    34    35    1
   107    25    24    1
   108    90    93    1
   109    35    36    1
   110   137   136    2
   111   112   113    2
   112   112   117   am
   113   138   136   am
   114   136   135    1
   115    24    20   am
   116    93    94    1
   117    93    95    1
   118   117   118    1
   119   135   132    1
   120    20    21    2
   121    20    19    1
   122   155   154   ar
   123   156   154   ar
   124   154   153    1
   125   132   131    1
   126   132   133    1
   127   118   119    1
   128    23    22    1
   129   153   152    1
   130   152   149    1
   131   139   133   am
   132   139   140    1
   133    19    22    1
   134    19    18    1
   135   121   119   am
   136   121   122    1
   137   133   134    2
   138   140   141    1
   139   140   143    1
   140    18    12   am
   141   119   120    2
   142   144   143    1
   143   144   145    1
   144   148   149    1
   145   125   122    1
   146   125   126    1
   147   149   150    1
   148   146   145    1
   149   146   147    1
   150    12    13    2
   151    12    11    1
   152    10    11    1
   153    10     3   am
   154   141   142    2
   155     9     7   am
   156    11    14    1
   157   124   123    2
   158   122   123    1
   159    16    15    2
   160     2     3    1
   161     2     1    1
   162     2     5    1
   163     6     7    1
   164     6     5    1
   165     3     4    2
   166   126   127   ar
   167   126   128   ar
   168     7     8    2
   169   150   151    2
   170   150   157   am
   171   127   129   ar
   172    15    14    1
   173    15    17   am
   174   128   130   ar
   175   164   162    1
   176   157   158    1
   177   162   163    1
   178   162   161    1
   179   129   130   ar
   180   158   161    1
   181   158   159    1
   182   159   160    2
