@<TRIPOS>MOLECULE
tmp/1nrrB00.pdb
 133 126 0 0 0
SMALL
GASTEIGER

@<TRIPOS>ATOM
      1  N         11.9040   -0.1510   10.2120 N.3    17  MET17      -0.1245
      2  CA        12.0650   -1.5630    9.8040 C.3    17  MET17       0.1570
      3  C         13.5130   -1.8250    9.3500 C.2    17  MET17       0.2261
      4  O         14.0900   -1.0640    8.5690 O.2    17  MET17      -0.2867
      5  CB        11.0660   -1.9260    8.7390 C.3    17  MET17       0.0387
      6  CG        11.2910   -3.2400    8.0340 C.3    17  MET17       0.0595
      7  SD         9.8310   -3.6840    7.0210 S.3    17  MET17      -0.1393
      8  CE         8.5100   -3.6080    8.2480 C.3    17  MET17       0.0692
      9  N         15.7610   -3.8820    7.2490 N.3    19  PHE19      -0.1241
     10  CA        15.4470   -4.7500    6.0670 C.3    19  PHE19       0.1605
     11  C         16.6700   -5.1900    5.2860 C.2    19  PHE19       0.2264
     12  O         17.5810   -4.4720    4.8050 O.2    19  PHE19      -0.2867
     13  CB        14.3770   -4.0170    5.2220 C.3    19  PHE19       0.0534
     14  CG        13.6600   -4.8910    4.2420 C.ar   19  PHE19      -0.0203
     15  CD1       12.6070   -5.6780    4.6780 C.ar   19  PHE19      -0.0042
     16  CD2       14.0840   -4.9660    2.8900 C.ar   19  PHE19      -0.0042
     17  CE1       11.9660   -6.5840    3.8770 C.ar   19  PHE19      -0.0003
     18  CE2       13.4000   -5.8200    2.0190 C.ar   19  PHE19      -0.0003
     19  CZ        12.3680   -6.6430    2.5430 C.ar   19  PHE19      -0.0000
     20  N         15.1960  -10.5660    0.6430 N.3    24  GLN24      -0.1231
     21  CA        14.4520   -9.4530    1.2260 C.3    24  GLN24       0.1698
     22  C         13.8630  -10.0470    2.5160 C.2    24  GLN24       0.2595
     23  O         13.2310  -11.1240    2.4500 O.2    24  GLN24      -0.2718
     24  CB        13.2910   -8.9110    0.4140 C.3    24  GLN24       0.0381
     25  CG        13.6000   -8.5460   -1.0010 C.3    24  GLN24       0.0905
     26  CD        13.1490   -7.2140   -1.5440 C.2    24  GLN24       0.2608
     27  OE1       11.9990   -6.7220   -1.5650 O.2    24  GLN24      -0.2717
     28  NE2       14.1790   -6.4900   -2.0740 N.am   24  GLN24      -0.0878
     29  N         14.1920   -9.4040    3.6420 N.am   25  GLU25      -0.1920
     30  CA        13.5840   -9.9930    4.8690 C.3    25  GLU25       0.1949
     31  C         13.6590   -8.9720    5.9960 C.2    25  GLU25       0.2658
     32  O         14.5490   -8.1370    6.0530 O.2    25  GLU25      -0.2711
     33  CB        14.1700  -11.3190    5.2910 C.2    25  GLU25       0.0111
     34  CG        15.6620  -11.5350    5.1420 C.2    25  GLU25       0.0838
     35  CD        16.2890  -12.6550    5.9370 C.2    25  GLU25       0.3877
     36  OE1       15.4550  -13.5590    6.2150 O.co2  25  GLU25      -0.2406
     37  OE2       17.4680  -12.7050    6.3040 O.co2  25  GLU25      -0.2406
     38  N         12.6090   -9.0340    6.7940 N.am   26  LEU26      -0.1974
     39  CA        12.5060   -8.2340    7.9660 C.3    26  LEU26       0.1596
     40  C         13.6250   -8.8240    8.8540 C.2    26  LEU26       0.2287
     41  O         13.7690  -10.0310    9.0110 O.2    26  LEU26      -0.2864
     42  CB        11.1590   -8.2200    8.7030 C.3    26  LEU26       0.0297
     43  CG        11.3330   -7.4400   10.0270 C.3    26  LEU26       0.0022
     44  CD1       11.3310   -5.9420    9.7990 C.3    26  LEU26       0.0001
     45  CD2       10.3140   -7.9820   11.0030 C.3    26  LEU26       0.0001
     46  N         18.9480   -1.9960    4.2910 N.3    60  LEU60      -0.1245
     47  CA        18.0700   -0.8770    4.1050 C.3    60  LEU60       0.1561
     48  C         17.3120   -0.7280    5.4610 C.2    60  LEU60       0.2260
     49  O         16.9600   -1.6820    6.1750 O.2    60  LEU60      -0.2867
     50  CB        16.9690   -1.1200    3.0550 C.3    60  LEU60       0.0270
     51  CG        17.2490   -0.5530    1.6730 C.3    60  LEU60       0.0019
     52  CD1       18.6940   -0.0700    1.4400 C.3    60  LEU60       0.0001
     53  CD2       16.8740   -1.6700    0.6860 C.3    60  LEU60       0.0001
     54  N         13.5870    1.2040    6.4200 N.3    62  ARG62      -0.1245
     55  CA        12.2770    1.5870    6.0080 C.3    62  ARG62       0.1563
     56  C         11.6010    2.3230    7.1660 C.2    62  ARG62       0.2260
     57  O         11.3430    1.8130    8.2540 O.2    62  ARG62      -0.2867
     58  CB        11.5560    0.3840    5.4290 C.3    62  ARG62       0.0307
     59  CG        12.4120   -0.3380    4.3240 C.3    62  ARG62       0.0489
     60  CD        11.6260   -1.5050    3.8880 C.3    62  ARG62       0.2205
     61  NE        10.3260   -1.2630    3.2520 N.pl3  62  ARG62      -0.0865
     62  CZ         9.5170   -2.1880    2.7380 C.cat  62  ARG62       0.5346
     63  NH1        9.8010   -3.5090    2.8570 N.pl3  62  ARG62       0.1354
     64  NH2        8.3500   -1.8830    2.1300 N.pl3  62  ARG62       0.1354
     65  N          3.4590   -4.5770    7.1950 N.3    68  ARG68      -0.1231
     66  CA         4.7170   -5.3330    7.2240 C.3    68  ARG68       0.1694
     67  C          5.3400   -5.4690    5.8450 C.2    68  ARG68       0.2593
     68  O          6.4040   -4.9060    5.4350 O.2    68  ARG68      -0.2718
     69  CB         4.5750   -6.6620    7.9680 C.3    68  ARG68       0.0321
     70  CG         5.8960   -7.4250    8.1240 C.3    68  ARG68       0.0489
     71  CD         5.7840   -8.6000    9.0130 C.3    68  ARG68       0.2205
     72  NE         4.8450   -9.6150    8.5630 N.pl3  68  ARG68      -0.0865
     73  CZ         4.8740  -10.4100    7.4700 C.cat  68  ARG68       0.5346
     74  NH1        5.9090  -10.2600    6.6520 N.pl3  68  ARG68       0.1354
     75  NH2        3.9260  -11.3200    7.1390 N.pl3  68  ARG68       0.1354
     76  N          4.6490   -6.1280    4.9860 N.am   69  THR69      -0.1939
     77  CA         4.9250   -6.5040    3.5880 C.3    69  THR69       0.2028
     78  C          4.6200   -5.6020    2.4280 C.2    69  THR69       0.2642
     79  O          5.3980   -5.5740    1.4320 O.2    69  THR69      -0.2714
     80  CB         4.1470   -7.8900    3.5700 C.3    69  THR69       0.1808
     81  OG1        5.2210   -8.8800    3.7530 O.3    69  THR69      -0.2208
     82  CG2        3.0600   -7.9540    2.5340 C.3    69  THR69       0.0379
     83  N          3.6420   -4.7050    2.4810 N.am   70  ARG70      -0.1963
     84  CA         3.3830   -3.7790    1.3950 C.3    70  ARG70       0.1729
     85  C          4.3450   -2.6340    1.2360 C.2    70  ARG70       0.2616
     86  O          4.8740   -2.1150    2.2190 O.2    70  ARG70      -0.2715
     87  CB         1.9500   -3.2610    1.6510 C.3    70  ARG70       0.0348
     88  CG         1.1430   -4.5170    2.0460 C.3    70  ARG70       0.0492
     89  CD        -0.0920   -4.7160    1.3040 C.3    70  ARG70       0.2205
     90  NE        -1.2340   -5.4760    1.7200 N.pl3  70  ARG70      -0.0865
     91  CZ        -2.1090   -6.1890    0.9710 C.cat  70  ARG70       0.5346
     92  NH1       -2.0310   -6.3920   -0.3460 N.pl3  70  ARG70       0.1354
     93  NH2       -3.1980   -6.6510    1.6290 N.pl3  70  ARG70       0.1354
     94  N          4.6000   -2.1880    0.0080 N.am   71  TYR71      -0.1974
     95  CA         5.4260   -1.0000   -0.2600 C.3    71  TYR71       0.1639
     96  C          4.5050    0.1990   -0.0450 C.2    71  TYR71       0.2290
     97  O          3.4710    0.3030   -0.7650 O.2    71  TYR71      -0.2864
     98  CB         6.0700   -1.1880   -1.6450 C.3    71  TYR71       0.0560
     99  CG         6.6980    0.1370   -2.0200 C.ar   71  TYR71      -0.0198
    100  CD1        7.6620    0.7550   -1.2200 C.ar   71  TYR71      -0.0009
    101  CD2        6.1210    0.8740   -3.0310 C.ar   71  TYR71      -0.0009
    102  CE1        8.1210    2.0480   -1.4900 C.ar   71  TYR71       0.0417
    103  CE2        6.5500    2.1590   -3.3280 C.ar   71  TYR71       0.0417
    104  CZ         7.5390    2.7350   -2.5610 C.ar   71  TYR71       0.1957
    105  OH         7.9110    4.0000   -2.9450 O.3    71  TYR71      -0.2866
    106  N          3.3970    3.3440   -0.6410 N.3    73  ARG73      -0.1245
    107  CA         3.8140    4.0410   -1.8520 C.3    73  ARG73       0.1563
    108  C          3.9740    5.5510   -1.6480 C.2    73  ARG73       0.2260
    109  O          4.8510    6.1620   -2.2460 O.2    73  ARG73      -0.2867
    110  CB         2.8840    3.8720   -3.0570 C.3    73  ARG73       0.0307
    111  CG         3.4370    4.7100   -4.2410 C.3    73  ARG73       0.0489
    112  CD         3.1600    4.1490   -5.6330 C.3    73  ARG73       0.2205
    113  NE         1.8340    3.5730   -5.7260 N.pl3  73  ARG73      -0.0865
    114  CZ         0.7340    4.2230   -6.0870 C.cat  73  ARG73       0.5346
    115  NH1        0.7830    5.5190   -6.4400 N.pl3  73  ARG73       0.1354
    116  NH2       -0.4680    3.6340   -6.1010 N.pl3  73  ARG73       0.1354
    117  N         12.6300    4.8450    2.3120 N.3    78  ILE78      -0.1245
    118  CA        13.5770    3.7470    2.3200 C.3    78  ILE78       0.1561
    119  C         14.9490    4.4350    2.3950 C.2    78  ILE78       0.2260
    120  O         15.1030    5.4400    1.6850 O.2    78  ILE78      -0.2867
    121  CB        13.5680    2.7100    1.1640 C.3    78  ILE78       0.0252
    122  CG1       12.2020    2.3260    0.6150 C.3    78  ILE78       0.0019
    123  CG2       14.3770    1.4180    1.5580 C.3    78  ILE78       0.0019
    124  CD1       11.3020    1.1410    0.9970 C.3    78  ILE78       0.0001
    125  N          3.6220  -14.0070   11.7560 N.3   148  GLN148     -0.1245
    126  CA         3.9870  -12.6570   11.2800 C.3   148  GLN148      0.1566
    127  C          2.6680  -11.8890   11.2010 C.2   148  GLN148      0.2260
    128  O          1.6010  -12.4100   10.7800 O.2   148  GLN148     -0.2867
    129  CB         4.8110  -12.6560   10.0390 C.3   148  GLN148      0.0367
    130  CG         6.2630  -13.1170   10.2070 C.3   148  GLN148      0.0905
    131  CD         7.2380  -11.9480   10.4170 C.2   148  GLN148      0.2608
    132  OE1        7.4720  -11.4770   11.5350 O.2   148  GLN148     -0.2717
    133  NE2        7.8980  -11.4750    9.3450 N.am  148  GLN148     -0.0878
@<TRIPOS>BOND
     1   115   114    1
     2   116   114    1
     3   114   113    2
     4   113   112    1
     5   112   111    1
     6   111   110    1
     7   103   101   ar
     8   103   104   ar
     9   110   107    1
    10   101    99   ar
    11   105   104    1
    12   104   102   ar
    13   109   108    2
    14    28    26   am
    15    99    98    1
    16    99   100   ar
    17   107   108    1
    18   107   106    1
    19    98    95    1
    20    27    26    2
    21    26    25    1
    22   102   100   ar
    23    25    24    1
    24    97    96    2
    25    92    91    1
    26    95    96    1
    27    95    94    1
    28    94    85   am
    29    24    21    1
    30   122   124    1
    31   122   121    1
    32    20    21    1
    33    53    51    1
    34    91    93    1
    35    91    90    2
    36   121   123    1
    37   121   118    1
    38    21    22    1
    39    85    84    1
    40    85    86    2
    41    89    90    1
    42    89    88    1
    43    84    87    1
    44    84    83    1
    45    79    78    2
    46    52    51    1
    47    87    88    1
    48    51    50    1
    49   120   119    2
    50    18    19   ar
    51    18    16   ar
    52    64    62    1
    53   117   118    1
    54   118   119    1
    55    78    83   am
    56    78    77    1
    57    23    22    2
    58    22    29   am
    59    82    80    1
    60    19    17   ar
    61    62    63    1
    62    62    61    2
    63    16    14   ar
    64    50    47    1
    65    61    60    1
    66    80    77    1
    67    80    81    1
    68    77    76    1
    69    29    30    1
    70    17    15   ar
    71    60    59    1
    72    47    46    1
    73    47    48    1
    74    14    15   ar
    75    14    13    1
    76    59    58    1
    77    12    11    2
    78    30    33    1
    79    30    31    1
    80    76    67   am
    81    34    33    2
    82    34    35    1
    83    13    10    1
    84    11    10    1
    85    58    55    1
    86    68    67    2
    87    48    49    2
    88    67    66    1
    89    35    36   ar
    90    35    37   ar
    91    31    32    2
    92    31    38   am
    93    55    54    1
    94    55    56    1
    95    10     9    1
    96    74    73    1
    97    38    39    1
    98     7     6    1
    99     7     8    1
   100    75    73    1
   101    56    57    2
   102    65    66    1
   103    66    69    1
   104    73    72    2
   105    39    42    1
   106    39    40    1
   107    69    70    1
   108     6     5    1
   109    70    71    1
   110    72    71    1
   111     4     3    2
   112    42    43    1
   113     5     2    1
   114    40    41    2
   115   133   131   am
   116     3     2    1
   117    44    43    1
   118     2     1    1
   119    43    45    1
   120   129   130    1
   121   129   126    1
   122   130   131    1
   123   131   132    2
   124   128   127    2
   125   127   126    1
   126   126   125    1
