@<TRIPOS>MOLECULE
tmp/1nrsB01.pdb
 172 164 0 0 0
SMALL
GASTEIGER

@<TRIPOS>ATOM
      1  N         11.7030   -0.0970   10.2550 N.3    17  MET17      -0.1245
      2  CA        11.8940   -1.5620    9.9900 C.3    17  MET17       0.1570
      3  C         13.3280   -1.8030    9.5570 C.2    17  MET17       0.2261
      4  O         13.8150   -0.9300    8.7530 O.2    17  MET17      -0.2867
      5  CB        10.8700   -1.9860    8.9640 C.3    17  MET17       0.0387
      6  CG        11.2170   -3.0510    8.0220 C.3    17  MET17       0.0595
      7  SD         9.9240   -4.0120    7.1800 S.3    17  MET17      -0.1393
      8  CE         8.3420   -3.6000    8.0090 C.3    17  MET17       0.0692
      9  N         15.4590   -3.6440    7.0870 N.3    19  PHE19      -0.1241
     10  CA        15.0400   -4.5190    5.9250 C.3    19  PHE19       0.1605
     11  C         16.1510   -5.1190    5.0820 C.2    19  PHE19       0.2264
     12  O         17.0340   -4.3970    4.5420 O.2    19  PHE19      -0.2867
     13  CB        14.0130   -3.7610    5.0690 C.3    19  PHE19       0.0534
     14  CG        13.3770   -4.6770    4.0340 C.ar   19  PHE19      -0.0203
     15  CD1       12.3910   -5.5960    4.4040 C.ar   19  PHE19      -0.0042
     16  CD2       13.8010   -4.5950    2.7000 C.ar   19  PHE19      -0.0042
     17  CE1       11.7980   -6.4130    3.4330 C.ar   19  PHE19      -0.0003
     18  CE2       13.2040   -5.4060    1.7230 C.ar   19  PHE19      -0.0003
     19  CZ        12.1930   -6.3120    2.0900 C.ar   19  PHE19      -0.0000
     20  N         18.0860   -6.6450    2.2460 N.3    21  LYS21      -0.1301
     21  CA        18.1790   -6.3310    0.8100 C.3    21  LYS21       0.1247
     22  C         17.9810   -7.6110   -0.0110 C.3    21  LYS21       0.2009
     23  O         17.0580   -7.5420   -0.8600 O.3    21  LYS21      -0.2188
     24  CB        19.3940   -5.5750    0.4310 C.3    21  LYS21       0.0218
     25  CG        18.9310   -4.3430   -0.3510 C.3    21  LYS21       0.0031
     26  CD        19.7900   -3.1530   -0.0640 C.3    21  LYS21       0.0205
     27  CE        21.2470   -3.4240   -0.3860 C.3    21  LYS21       0.1093
     28  NZ        21.9510   -2.2330   -0.8810 N.3    21  LYS21      -0.1314
     29  N         15.2580  -10.1590    0.3180 N.3    24  GLN24      -0.1231
     30  CA        14.5610   -8.9650    0.8130 C.3    24  GLN24       0.1698
     31  C         13.9450   -9.6140    2.0830 C.2    24  GLN24       0.2592
     32  O         13.5500  -10.7860    1.7250 O.2    24  GLN24      -0.2718
     33  CB        13.3590   -8.6290   -0.0160 C.3    24  GLN24       0.0381
     34  CG        13.3320   -8.2080   -1.3850 C.3    24  GLN24       0.0905
     35  CD        13.5910   -6.8370   -1.9630 C.2    24  GLN24       0.2608
     36  OE1       14.7900   -6.4730   -2.1210 O.2    24  GLN24      -0.2717
     37  NE2       12.4950   -6.1470   -2.3520 N.am   24  GLN24      -0.0878
     38  N         13.9450   -8.9980    3.2240 N.am   25  GLU25      -0.1966
     39  CA        13.3100   -9.6650    4.4030 C.3    25  GLU25       0.1733
     40  C         13.5360   -8.8190    5.6870 C.2    25  GLU25       0.2616
     41  O         14.5090   -8.1420    5.8700 O.2    25  GLU25      -0.2715
     42  CB        13.7270  -11.0920    4.6950 C.3    25  GLU25       0.0429
     43  CG        15.2440  -11.2250    4.8070 C.3    25  GLU25       0.1163
     44  CD        15.5380  -12.6260    5.3550 C.2    25  GLU25       0.3649
     45  OE1       14.5130  -13.3690    5.1540 O.co2  25  GLU25      -0.2457
     46  OE2       16.5810  -13.0080    5.9270 O.co2  25  GLU25      -0.2457
     47  N         12.5350   -8.8200    6.5040 N.am   26  LEU26      -0.1977
     48  CA        12.3110   -8.1330    7.7550 C.3    26  LEU26       0.1596
     49  C         13.4220   -8.6530    8.6840 C.2    26  LEU26       0.2287
     50  O         13.4500   -9.8510    8.9480 O.2    26  LEU26      -0.2864
     51  CB        10.8880   -8.2230    8.3210 C.3    26  LEU26       0.0297
     52  CG        10.7950   -7.4310    9.6740 C.3    26  LEU26       0.0022
     53  CD1        9.4260   -6.9770   10.1250 C.3    26  LEU26       0.0001
     54  CD2       11.2220   -8.4130   10.7900 C.3    26  LEU26       0.0001
     55  N         19.0480   -1.9370    4.5230 N.3    60  LEU60      -0.1245
     56  CA        18.0510   -0.8870    4.1730 C.3    60  LEU60       0.1561
     57  C         17.1170   -0.5020    5.3820 C.2    60  LEU60       0.2260
     58  O         16.4610   -1.3600    6.0350 O.2    60  LEU60      -0.2867
     59  CB        17.1370   -1.4370    3.0620 C.3    60  LEU60       0.0270
     60  CG        17.1720   -0.6360    1.7550 C.3    60  LEU60       0.0019
     61  CD1       18.5810   -0.1900    1.3550 C.3    60  LEU60       0.0001
     62  CD2       16.6290   -1.4240    0.5600 C.3    60  LEU60       0.0001
     63  N         13.5150    1.3250    6.5990 N.3    62  ARG62      -0.1245
     64  CA        12.2040    1.7040    6.2060 C.3    62  ARG62       0.1563
     65  C         11.4220    2.4040    7.3420 C.2    62  ARG62       0.2260
     66  O         11.0710    1.8280    8.3830 O.2    62  ARG62      -0.2867
     67  CB        11.4490    0.4290    5.7390 C.3    62  ARG62       0.0307
     68  CG        12.3710   -0.2370    4.5790 C.3    62  ARG62       0.0489
     69  CD        11.6390   -1.3560    3.9810 C.3    62  ARG62       0.2205
     70  NE        10.4650   -1.1830    3.1030 N.pl3  62  ARG62      -0.0865
     71  CZ         9.5270   -1.9650    2.6740 C.cat  62  ARG62       0.5346
     72  NH1        9.4070   -3.3050    2.9640 N.pl3  62  ARG62       0.1354
     73  NH2        8.3930   -1.5330    2.1000 N.pl3  62  ARG62       0.1354
     74  N          3.2830   -4.3310    7.3650 N.3    68  ARG68      -0.1231
     75  CA         4.4930   -5.1500    7.5320 C.3    68  ARG68       0.1694
     76  C          5.1620   -5.2930    6.1300 C.2    68  ARG68       0.2593
     77  O          6.3220   -4.9230    5.8870 O.2    68  ARG68      -0.2718
     78  CB         4.0440   -6.5210    8.0710 C.3    68  ARG68       0.0321
     79  CG         5.1510   -7.5120    8.3910 C.3    68  ARG68       0.0489
     80  CD         4.5700   -8.7230    9.1180 C.3    68  ARG68       0.2205
     81  NE         5.0560   -9.9160    8.4870 N.pl3  68  ARG68      -0.0865
     82  CZ         4.4870  -10.7430    7.5940 C.cat  68  ARG68       0.5346
     83  NH1        3.1990  -10.6510    7.1400 N.pl3  68  ARG68       0.1354
     84  NH2        5.2210  -11.6970    7.0350 N.pl3  68  ARG68       0.1354
     85  N          4.3600   -5.7790    5.2010 N.am   69  THR69      -0.1939
     86  CA         4.8180   -6.1620    3.8740 C.3    69  THR69       0.2028
     87  C          4.5940   -5.2560    2.6150 C.2    69  THR69       0.2642
     88  O          5.4100   -5.3480    1.6770 O.2    69  THR69      -0.2714
     89  CB         4.1980   -7.4910    3.6210 C.3    69  THR69       0.1808
     90  OG1        5.3030   -8.3980    3.5260 O.3    69  THR69      -0.2208
     91  CG2        3.3050   -7.4620    2.3840 C.3    69  THR69       0.0379
     92  N          3.5770   -4.4090    2.5710 N.am   70  ARG70      -0.1963
     93  CA         3.3350   -3.5640    1.3820 C.3    70  ARG70       0.1729
     94  C          4.3540   -2.4320    1.1980 C.2    70  ARG70       0.2616
     95  O          4.9160   -1.9210    2.2050 O.2    70  ARG70      -0.2715
     96  CB         1.9530   -2.8760    1.4580 C.3    70  ARG70       0.0348
     97  CG         0.7670   -3.8490    1.2370 C.3    70  ARG70       0.0492
     98  CD         1.0540   -5.2820    1.6660 C.3    70  ARG70       0.2205
     99  NE        -0.1340   -6.1610    1.6380 N.pl3  70  ARG70      -0.0865
    100  CZ        -0.9830   -6.4060    2.6850 C.cat  70  ARG70       0.5346
    101  NH1       -0.8080   -5.8050    3.8950 N.pl3  70  ARG70       0.1354
    102  NH2       -2.0470   -7.2690    2.6280 N.pl3  70  ARG70       0.1354
    103  N          4.6100   -2.1230   -0.0920 N.am   71  TYR71      -0.1974
    104  CA         5.4890   -0.9500   -0.3410 C.3    71  TYR71       0.1639
    105  C          4.4810    0.1910   -0.1310 C.2    71  TYR71       0.2290
    106  O          3.4590    0.1630   -0.8790 O.2    71  TYR71      -0.2864
    107  CB         6.1300   -0.8830   -1.6860 C.3    71  TYR71       0.0560
    108  CG         6.8280    0.4820   -1.7470 C.ar   71  TYR71      -0.0198
    109  CD1        8.0490    0.7090   -1.0690 C.ar   71  TYR71      -0.0009
    110  CD2        6.2860    1.4850   -2.5330 C.ar   71  TYR71      -0.0009
    111  CE1        8.6950    1.9310   -1.1990 C.ar   71  TYR71       0.0417
    112  CE2        6.9180    2.7180   -2.7400 C.ar   71  TYR71       0.0417
    113  CZ         8.1110    2.8970   -2.0440 C.ar   71  TYR71       0.1957
    114  OH         8.7260    4.1050   -2.2130 O.3    71  TYR71      -0.2866
    115  N          5.7980    5.6290    3.5370 N.3    76  GLU76      -0.1231
    116  CA         7.0860    5.2050    3.9380 C.3    76  GLU76       0.1699
    117  C          8.2270    5.8880    3.1890 C.2    76  GLU76       0.2592
    118  O          8.0080    6.4330    2.0880 O.2    76  GLU76      -0.2718
    119  CB         7.3600    3.7530    3.6580 C.3    76  GLU76       0.0402
    120  CG         7.2680    3.0380    2.3530 C.3    76  GLU76       0.1161
    121  CD         7.6250    1.5520    2.6510 C.2    76  GLU76       0.3649
    122  OE1        8.8490    1.2650    2.9320 O.co2  76  GLU76      -0.2457
    123  OE2        6.7070    0.6350    2.6510 O.co2  76  GLU76      -0.2457
    124  N          9.3990    5.9080    3.8940 N.am   77  LYS77      -0.1966
    125  CA        10.6280    6.4480    3.2370 C.3    77  LYS77       0.1728
    126  C         11.7550    5.3840    3.3200 C.2    77  LYS77       0.2616
    127  O         11.8940    4.6670    4.4170 O.2    77  LYS77      -0.2715
    128  CB        11.1630    7.6850    3.7800 C.3    77  LYS77       0.0311
    129  CG        11.6060    8.7750    2.8180 C.3    77  LYS77       0.0038
    130  CD        10.4520    9.3900    2.0440 C.3    77  LYS77       0.0206
    131  CE        10.9230   10.5280    1.1600 C.3    77  LYS77       0.1093
    132  NZ         9.7760   11.1720    0.4760 N.3    77  LYS77      -0.1314
    133  N         12.5940    5.2210    2.3680 N.am   78  ILE78      -0.1963
    134  CA        13.6190    4.1340    2.5730 C.3    78  ILE78       0.1727
    135  C         14.9550    4.7860    2.6270 C.2    78  ILE78       0.2617
    136  O         15.1300    5.7630    1.7450 O.2    78  ILE78      -0.2715
    137  CB        13.4570    3.0870    1.4090 C.3    78  ILE78       0.0290
    138  CG1       11.9810    2.7930    1.3510 C.3    78  ILE78       0.0022
    139  CG2       14.3750    1.8930    1.5960 C.3    78  ILE78       0.0023
    140  CD1       11.4400    1.4390    0.8880 C.3    78  ILE78       0.0001
    141  N         15.9240    4.3930    3.4560 N.am   79  SER79      -0.1936
    142  CA        17.2310    5.0490    3.3980 C.3    79  SER79       0.2055
    143  C         18.2480    3.8640    3.4360 C.2    79  SER79       0.2642
    144  O         18.0280    2.6770    3.7070 O.2    79  SER79      -0.2714
    145  CB        17.6550    6.0940    4.3880 C.3    79  SER79       0.2130
    146  OG        16.5360    6.7110    5.0220 O.3    79  SER79      -0.2179
    147  N         19.4270    4.4180    3.1850 N.am   80  MET80      -0.1976
    148  CA        20.6700    3.6590    3.1400 C.3    80  MET80       0.1605
    149  C         21.5140    4.1370    4.3430 C.2    80  MET80       0.2287
    150  O         21.5480    5.3860    4.5690 O.2    80  MET80      -0.2864
    151  CB        21.4610    3.8800    1.8350 C.3    80  MET80       0.0413
    152  CG        20.5590    3.2980    0.7500 C.3    80  MET80       0.0598
    153  SD        21.2820    3.7230   -0.9500 S.3    80  MET80      -0.1393
    154  CE        19.9070    2.7180   -1.8040 C.3    80  MET80       0.0692
    155  N         21.5660   10.0510    4.1050 N.3   107  LYS107     -0.1245
    156  CA        20.9830   11.4260    4.0020 C.3   107  LYS107      0.1561
    157  C         19.8610   11.4780    4.9980 C.2   107  LYS107      0.2260
    158  O         19.2870   10.3990    5.2110 O.2   107  LYS107     -0.2867
    159  CB        20.3460   11.7340    2.6210 C.3   107  LYS107      0.0271
    160  CG        19.1360   10.8840    2.2580 C.3   107  LYS107      0.0035
    161  CD        18.6190   11.3810    0.9290 C.3   107  LYS107      0.0206
    162  CE        17.7830   10.3280    0.1930 C.3   107  LYS107      0.1093
    163  NZ        16.5890    9.9640    0.9250 N.3   107  LYS107     -0.1314
    164  N          2.7320  -13.9540   11.2010 N.3   150  GLN150     -0.1245
    165  CA         3.3940  -12.5740   11.0410 C.3   150  GLN150      0.1566
    166  C          2.1600  -11.7560   10.7950 C.2   150  GLN150      0.2260
    167  O          1.2380  -12.3320   10.1800 O.2   150  GLN150     -0.2867
    168  CB         4.5130  -12.6900   10.1360 C.3   150  GLN150      0.0367
    169  CG         5.3410  -13.9890   10.5870 C.3   150  GLN150      0.0905
    170  CD         6.1740  -14.2660    9.3150 C.2   150  GLN150      0.2608
    171  OE1        5.4470  -14.3520    8.2340 O.2   150  GLN150     -0.2717
    172  NE2        7.4900  -14.3010    9.2820 N.am  150  GLN150     -0.0878
@<TRIPOS>BOND
     1   112   110   ar
     2   112   113   ar
     3   110   108   ar
     4    37    35   am
     5   114   113    1
     6    36    35    2
     7   113   111   ar
     8    35    34    1
     9   154   153    1
    10   108   107    1
    11   108   109   ar
    12   107   104    1
    13    34    33    1
    14   111   109   ar
    15   153   152    1
    16    28    27    1
    17   106   105    2
    18    23    22    1
    19    27    26    1
    20    25    26    1
    21    25    24    1
    22   104   105    1
    23   104   103    1
    24   103    94   am
    25    33    30    1
    26    22    21    1
    27   162   163    1
    28   162   161    1
    29    29    30    1
    30    24    21    1
    31   132   131    1
    32    62    60    1
    33   152   151    1
    34    21    20    1
    35    30    31    1
    36   140   138    1
    37   161   160    1
    38   131   130    1
    39    94    93    1
    40    94    95    2
    41    97    96    1
    42    97    98    1
    43   138   137    1
    44    61    60    1
    45    93    96    1
    46    93    92    1
    47   137   139    1
    48   137   134    1
    49    99    98    1
    50    99   100    2
    51    88    87    2
    52    18    19   ar
    53    18    16   ar
    54    32    31    2
    55   136   135    2
    56    60    59    1
    57   151   148    1
    58   130   129    1
    59    31    38   am
    60   118   117    2
    61    19    17   ar
    62    73    71    1
    63   160   159    1
    64   120   121    1
    65   120   119    1
    66   133   134    1
    67   133   126   am
    68    91    89    1
    69    92    87   am
    70   134   135    1
    71    87    86    1
    72   159   156    1
    73   135   141   am
    74   102   100    1
    75   121   123   ar
    76   121   122   ar
    77    71    72    1
    78    71    70    2
    79   100   101    1
    80    16    14   ar
    81   129   128    1
    82    59    56    1
    83    70    69    1
    84   148   147    1
    85   148   149    1
    86   147   143   am
    87   117   124   am
    88   117   116    1
    89    38    39    1
    90   125   126    1
    91   125   128    1
    92   125   124    1
    93   126   127    2
    94   142   143    1
    95   142   141    1
    96   142   145    1
    97    17    15   ar
    98   143   144    2
    99    90    89    1
   100   115   116    1
   101    89    86    1
   102   119   116    1
   103    86    85    1
   104    69    68    1
   105   156   155    1
   106   156   157    1
   107    14    15   ar
   108    14    13    1
   109    56    55    1
   110    56    57    1
   111   149   150    2
   112   145   146    1
   113    39    42    1
   114    39    40    1
   115    12    11    2
   116    68    67    1
   117    42    43    1
   118    43    44    1
   119   157   158    2
   120    13    10    1
   121    11    10    1
   122    45    44   ar
   123    85    76   am
   124    44    46   ar
   125    57    58    2
   126    40    41    2
   127    40    47   am
   128    67    64    1
   129    77    76    2
   130    10     9    1
   131    76    75    1
   132    64    63    1
   133    64    65    1
   134    47    48    1
   135    84    82    1
   136    83    82    1
   137     7     8    1
   138     7     6    1
   139    65    66    2
   140    74    75    1
   141    75    78    1
   142    82    81    2
   143    48    51    1
   144    48    49    1
   145     6     5    1
   146    78    79    1
   147   171   170    2
   148    51    52    1
   149    79    80    1
   150    81    80    1
   151    49    50    2
   152     4     3    2
   153     5     2    1
   154   172   170   am
   155   170   169    1
   156     3     2    1
   157    52    53    1
   158    52    54    1
   159     2     1    1
   160   168   169    1
   161   168   165    1
   162   167   166    2
   163   166   165    1
   164   165   164    1
