@<TRIPOS>MOLECULE
tmp/1nrsB00.pdb
 239 237 0 0 0
SMALL
GASTEIGER

@<TRIPOS>ATOM
      1  N         14.2110   -7.7010    9.1500 N.3    27  LEU27      -0.1231
      2  CA        15.2960   -8.1940   10.0320 C.3    27  LEU27       0.1693
      3  C         14.9210   -7.9470   11.4630 C.2    27  LEU27       0.2592
      4  O         14.8280   -8.8750   12.3110 O.2    27  LEU27      -0.2718
      5  CB        16.4140   -7.4440    9.3090 C.3    27  LEU27       0.0284
      6  CG        17.7260   -8.1140    9.2310 C.3    27  LEU27       0.0019
      7  CD1       18.1950   -8.2240    7.8040 C.3    27  LEU27       0.0001
      8  CD2       18.7600   -7.1950    9.9030 C.3    27  LEU27       0.0001
      9  N         14.5580   -6.6970   11.8760 N.am   28  CYS28      -0.1970
     10  CA        14.2490   -6.2610   13.2460 C.3    28  CYS28       0.1712
     11  C         13.5430   -4.9080   13.1430 C.2    28  CYS28       0.2296
     12  O         13.3890   -4.3720   12.0390 O.2    28  CYS28      -0.2864
     13  CB        15.6850   -5.9200   13.8360 C.3    28  CYS28       0.0983
     14  SG        16.4820   -7.3500   14.6300 S.3    28  CYS28      -0.0798
     15  N         22.4610   -6.9760   18.5380 N.3    43  HIS43      -0.1297
     16  CA        22.3620   -8.3220   17.9530 C.3    43  HIS43       0.1306
     17  C         21.5230   -8.5220   16.6600 C.3    43  HIS43       0.2013
     18  O         21.4610   -9.7100   16.1100 O.3    43  HIS43      -0.2188
     19  CB        22.0710   -9.3270   19.0820 C.3    43  HIS43       0.0691
     20  CG        20.5790   -9.3660   19.1570 C.ar   43  HIS43       0.0814
     21  ND1       19.8900   -8.8180   20.3370 N.ar   43  HIS43      -0.2268
     22  CD2       19.6860   -9.8970   18.3640 C.ar   43  HIS43       0.1154
     23  CE1       18.5510   -9.0920   20.1230 C.ar   43  HIS43       0.1986
     24  NE2       18.3790   -9.6870   18.9030 N.ar   43  HIS43      -0.2212
     25  N         25.8330  -11.1430   15.3630 N.3    47  TYR47      -0.1241
     26  CA        25.5560  -12.3170   16.1200 C.3    47  TYR47       0.1605
     27  C         26.3430  -13.5690   15.6160 C.2    47  TYR47       0.2264
     28  O         25.7820  -14.4740   14.9370 O.2    47  TYR47      -0.2867
     29  CB        24.0630  -12.6040   16.1330 C.3    47  TYR47       0.0534
     30  CG        23.7560  -13.4610   17.3340 C.ar   47  TYR47      -0.0201
     31  CD1       24.2120  -13.0340   18.5360 C.ar   47  TYR47      -0.0009
     32  CD2       23.1230  -14.6960   17.2520 C.ar   47  TYR47      -0.0009
     33  CE1       23.9830  -13.7530   19.7360 C.ar   47  TYR47       0.0417
     34  CE2       22.8700  -15.4850   18.4120 C.ar   47  TYR47       0.0417
     35  CZ        23.3100  -14.9770   19.6660 C.ar   47  TYR47       0.1957
     36  OH        23.1480  -15.7160   20.8150 O.3    47  TYR47      -0.2866
     37  N         25.3980  -17.3050   15.0970 N.3    50  TRP50      -0.1298
     38  CA        24.3460  -17.5820   14.0850 C.3    50  TRP50       0.1291
     39  C         24.9740  -17.1220   12.7380 C.3    50  TRP50       0.2013
     40  O         24.2060  -17.0630   11.8210 O.3    50  TRP50      -0.2188
     41  CB        22.9930  -16.8720   14.1740 C.3    50  TRP50       0.0497
     42  CG        22.3150  -17.4780   15.3310 C.ar   50  TRP50      -0.0001
     43  CD1       22.6750  -18.6380   15.9740 C.ar   50  TRP50       0.0946
     44  CD2       21.0710  -16.9940   15.9540 C.ar   50  TRP50       0.0152
     45  NE1       21.7170  -18.9330   16.9800 N.ar   50  TRP50      -0.2442
     46  CE2       20.7650  -17.9110   16.9920 C.ar   50  TRP50       0.0810
     47  CE3       20.2410  -15.9180   15.6630 C.ar   50  TRP50       0.0012
     48  CZ2       19.6570  -17.7650   17.7750 C.ar   50  TRP50       0.0191
     49  CZ3       19.1380  -15.7210   16.4310 C.ar   50  TRP50       0.0001
     50  CH2       18.7660  -16.6400   17.4960 C.ar   50  TRP50       0.0015
     51  N         28.0090  -13.8350   26.1860 N.3    94  GLU94      -0.1231
     52  CA        27.2300  -14.5650   27.2310 C.3    94  GLU94       0.1699
     53  C         25.8280  -14.0690   27.3780 C.2    94  GLU94       0.2592
     54  O         24.9150  -15.0150   27.4720 O.2    94  GLU94      -0.2718
     55  CB        27.9840  -14.4710   28.5960 C.3    94  GLU94       0.0402
     56  CG        27.1150  -14.7880   29.8740 C.3    94  GLU94       0.1161
     57  CD        27.6550  -14.0440   31.1100 C.2    94  GLU94       0.3649
     58  OE1       28.5100  -13.1010   31.1040 O.co2  94  GLU94      -0.2457
     59  OE2       27.1300  -14.6070   32.0800 O.co2  94  GLU94      -0.2457
     60  N         25.5590  -12.7410   27.4000 N.am   95  ASN95      -0.1960
     61  CA        24.1300  -12.4090   27.6660 C.3    95  ASN95       0.1819
     62  C         23.5610  -11.2300   26.9190 C.2    95  ASN95       0.2621
     63  O         22.4650  -10.9200   27.4300 O.2    95  ASN95      -0.2715
     64  CB        23.9800  -12.1690   29.1950 C.3    95  ASN95       0.1195
     65  CG        25.0570  -11.2180   29.7490 C.2    95  ASN95       0.2630
     66  OD1       25.9810  -10.7810   29.0080 O.2    95  ASN95      -0.2716
     67  ND2       24.9310  -10.8060   31.0480 N.am   95  ASN95      -0.0877
     68  N         24.2820  -10.7110   25.8610 N.am   96  LEU96      -0.1977
     69  CA        23.7310   -9.5450   25.1070 C.3    96  LEU96       0.1596
     70  C         23.7710   -8.2970   25.9770 C.2    96  LEU96       0.2287
     71  O         22.8740   -7.4400   25.9530 O.2    96  LEU96      -0.2864
     72  CB        22.2840   -9.8300   24.5980 C.3    96  LEU96       0.0297
     73  CG        22.0160  -11.0180   23.7360 C.3    96  LEU96       0.0022
     74  CD1       20.8470  -10.9670   22.7630 C.3    96  LEU96       0.0001
     75  CD2       23.2960  -11.1430   22.8270 C.3    96  LEU96       0.0001
     76  N          4.4000  -17.7120   20.0440 N.3   146  GLU146     -0.1245
     77  CA         5.7660  -18.2970   20.2020 C.3   146  GLU146      0.1567
     78  C          6.2970  -19.1190   19.0350 C.2   146  GLU146      0.2260
     79  O          7.4670  -19.1230   18.5370 O.2   146  GLU146     -0.2867
     80  CB         5.8810  -19.2790   21.4020 C.3   146  GLU146      0.0388
     81  CG         7.3320  -19.5360   21.6500 C.3   146  GLU146      0.1160
     82  CD         7.8270  -20.0630   22.9200 C.2   146  GLU146      0.3649
     83  OE1        7.2220  -19.8730   23.9840 O.co2 146  GLU146     -0.2457
     84  OE2        8.9270  -20.6100   22.7710 O.co2 146  GLU146     -0.2457
     85  N         20.2470  -16.9620   33.1860 N.3   173  ILE173     -0.1301
     86  CA        21.1280  -15.9360   32.5850 C.3   173  ILE173      0.1246
     87  C         21.6190  -14.9050   33.5900 C.3   173  ILE173      0.2009
     88  O         20.7090  -14.4920   34.4550 O.3   173  ILE173     -0.2188
     89  CB        20.3490  -15.1750   31.3830 C.3   173  ILE173      0.0202
     90  CG1       20.0250  -16.3000   30.3170 C.3   173  ILE173      0.0015
     91  CG2       21.1730  -14.0720   30.7060 C.3   173  ILE173      0.0016
     92  CD1       21.4710  -16.8800   29.8260 C.3   173  ILE173      0.0000
     93  N          3.7690  -10.0410   24.9670 N.3   193  ASP193     -0.1225
     94  CA         5.2500  -10.0120   24.8940 C.3   193  ASP193      0.1805
     95  C          5.7130   -9.7030   23.4770 C.2   193  ASP193      0.2598
     96  O          4.9130   -9.7190   22.5100 O.2   193  ASP193     -0.2718
     97  CB         5.6780  -11.3620   25.4590 C.3   193  ASP193      0.1424
     98  CG         7.1450  -11.4840   25.6540 C.2   193  ASP193      0.3668
     99  OD1        7.9620  -10.4580   25.7390 O.co2 193  ASP193     -0.2456
    100  OD2        7.6700  -12.6950   25.8690 O.co2 193  ASP193     -0.2456
    101  N          6.9840   -9.3740   23.4450 N.am  194  ALA194     -0.1966
    102  CA         7.7530   -9.0680   22.2300 C.3   194  ALA194      0.1728
    103  C          8.0390  -10.5260   21.8270 C.2   194  ALA194      0.2616
    104  O          7.8450  -11.4820   22.6370 O.2   194  ALA194     -0.2715
    105  CB         9.0170   -8.2600   22.3840 C.3   194  ALA194      0.0334
    106  N          8.3820  -10.7060   20.6000 N.am  195  CYS195     -0.1954
    107  CA         8.6230  -12.0590   20.0850 C.3   195  CYS195      0.1843
    108  C          9.6350  -11.8750   18.9390 C.2   195  CYS195      0.2625
    109  O          9.9830  -10.6790   18.6670 O.2   195  CYS195     -0.2714
    110  CB         7.3750  -12.7350   19.6540 C.3   195  CYS195      0.0997
    111  SG         7.6200  -14.5930   19.5920 S.3   195  CYS195     -0.0798
    112  N          9.8870  -13.0070   18.3240 N.am  196  GLU196     -0.1963
    113  CA        10.8680  -12.9810   17.2030 C.3   196  GLU196      0.1733
    114  C         10.4780  -11.9780   16.1440 C.2   196  GLU196      0.2613
    115  O          9.2110  -12.0230   15.8400 O.2   196  GLU196     -0.2715
    116  CB        10.9660  -14.4130   16.6710 C.3   196  GLU196      0.0429
    117  CG        12.5090  -14.5860   16.4170 C.3   196  GLU196      0.1163
    118  CD        12.8000  -15.6360   15.3790 C.2   196  GLU196      0.3649
    119  OE1       11.9520  -16.0030   14.4970 O.co2 196  GLU196     -0.2457
    120  OE2       13.9650  -16.1120   15.4180 O.co2 196  GLU196     -0.2457
    121  N         11.4160  -11.2340   15.6410 N.am  197  GLY197     -0.2012
    122  CA        11.1540  -10.1990   14.6140 C.3   197  GLY197      0.1506
    123  C         10.9610   -8.8160   15.2820 C.3   197  GLY197      0.2054
    124  O         11.1190   -7.8830   14.4810 O.3   197  GLY197     -0.2184
    125  N         12.8460   -7.4390   17.9390 N.3   199  SER199     -0.1273
    126  CA        14.1130   -7.0660   18.4210 C.3   199  SER199      0.1575
    127  C         14.5510   -5.8070   17.8420 C.3   199  SER199      0.2036
    128  O         14.4010   -5.6770   16.5580 O.3   199  SER199     -0.2187
    129  CB        15.0540   -8.1410   17.9820 C.3   199  SER199      0.2036
    130  OG        16.0630   -8.0590   19.0840 O.3   199  SER199     -0.2187
    131  N         13.9600   -3.6490   22.7270 N.3   219  VAL219     -0.1231
    132  CA        13.7970   -5.1220   22.8190 C.3   219  VAL219      0.1692
    133  C         15.0910   -5.8190   22.4790 C.2   219  VAL219      0.2593
    134  O         15.8740   -5.7530   21.4940 O.2   219  VAL219     -0.2718
    135  CB        12.7690   -5.5880   21.7620 C.3   219  VAL219      0.0266
    136  CG1       12.4410   -7.0910   21.9150 C.3   219  VAL219      0.0020
    137  CG2       11.5680   -4.6350   21.7070 C.3   219  VAL219      0.0020
    138  N         15.5180   -6.6780   23.4790 N.am  220  SER220     -0.1938
    139  CA        16.7410   -7.4330   23.3630 C.3   220  SER220      0.2055
    140  C         16.5570   -8.9090   23.2800 C.2   220  SER220      0.2643
    141  O         16.8170   -9.4460   22.2110 O.2   220  SER220     -0.2714
    142  CB        17.6260   -7.0190   24.5370 C.3   220  SER220      0.2130
    143  OG        18.8390   -7.7740   24.4090 O.3   220  SER220     -0.2179
    144  N         16.0500   -9.5500   24.3810 N.am  221  TRP221     -0.1959
    145  CA        15.8950  -11.0540   24.4190 C.3   221  TRP221      0.1771
    146  C         14.8910  -11.4970   25.3560 C.2   221  TRP221      0.2620
    147  O         14.4190  -10.7970   26.2590 O.2   221  TRP221     -0.2715
    148  CB        17.2640  -11.6930   24.6800 C.3   221  TRP221      0.0590
    149  CG        17.8020  -11.3000   26.0570 C.ar  221  TRP221      0.0006
    150  CD1       18.5850  -10.2470   26.3710 C.ar  221  TRP221      0.0946
    151  CD2       17.6720  -12.0920   27.2590 C.ar  221  TRP221      0.0152
    152  NE1       19.0120  -10.2880   27.7030 N.ar  221  TRP221     -0.2442
    153  CE2       18.4530  -11.4400   28.2890 C.ar  221  TRP221      0.0810
    154  CE3       16.9970  -13.3090   27.5820 C.ar  221  TRP221      0.0012
    155  CZ2       18.5970  -11.9710   29.5280 C.ar  221  TRP221      0.0191
    156  CZ3       17.0730  -13.8020   28.8900 C.ar  221  TRP221      0.0001
    157  CH2       17.8570  -13.1720   29.8420 C.ar  221  TRP221      0.0015
    158  N         14.5860  -12.8030   25.1880 N.am  222  GLY222     -0.1940
    159  CA        13.5170  -13.4700   26.0710 C.3   222  GLY222      0.2014
    160  C         13.8370  -14.9860   25.9620 C.2   222  GLY222      0.2639
    161  O         14.9650  -15.3710   25.5550 O.2   222  GLY222     -0.2714
    162  N         12.9680  -15.8110   26.4550 N.am  223  GLU223     -0.1963
    163  CA        13.0000  -17.2720   26.5720 C.3   223  GLU223      0.1733
    164  C         11.5770  -17.7320   26.3920 C.2   223  GLU223      0.2617
    165  O         10.7590  -17.8230   27.2750 O.2   223  GLU223     -0.2715
    166  CB        13.4410  -17.7080   27.9550 C.3   223  GLU223      0.0429
    167  CG        15.0030  -17.4220   28.2610 C.3   223  GLU223      0.1163
    168  CD        15.3580  -17.6060   29.7670 C.2   223  GLU223      0.3649
    169  OE1       14.7400  -17.1120   30.6940 O.co2 223  GLU223     -0.2457
    170  OE2       16.4030  -18.1740   30.0280 O.co2 223  GLU223     -0.2457
    171  N         11.4340  -17.9060   25.1010 N.am  224  GLY224     -0.1940
    172  CA        10.0470  -18.3010   24.5230 C.3   224  GLY224      0.2014
    173  C          9.4140  -16.8910   24.2850 C.2   224  GLY224      0.2635
    174  O         10.1980  -15.8310   24.2720 O.2   224  GLY224     -0.2714
    175  N          8.1070  -16.9340   24.0770 N.am  225  CYS225     -0.2021
    176  CA         7.4570  -15.6290   23.8770 C.3   225  CYS225      0.1398
    177  C          6.1910  -15.7700   24.6890 C.3   225  CYS225      0.2045
    178  O          5.5270  -16.8280   24.2860 O.3   225  CYS225     -0.2185
    179  CB         7.0070  -15.3010   22.4040 C.3   225  CYS225      0.0930
    180  SG         8.4320  -15.2860   21.3350 S.3   225  CYS225     -0.0802
    181  N          5.6010  -16.7650   27.8770 N.3   227  ARG227     -0.1301
    182  CA         5.3580  -17.9460   28.7800 C.3   227  ARG227      0.1248
    183  C          5.2000  -17.5230   30.1470 C.3   227  ARG227      0.2009
    184  O          5.8470  -16.4800   30.5760 O.3   227  ARG227     -0.2188
    185  CB         6.4400  -18.9920   28.4080 C.3   227  ARG227      0.0254
    186  CG         7.4300  -18.1120   27.6010 C.3   227  ARG227      0.0485
    187  CD         8.5220  -19.0570   27.2190 C.3   227  ARG227      0.2205
    188  NE         7.8220  -20.3630   26.9780 N.pl3 227  ARG227     -0.0865
    189  CZ         8.7210  -21.3140   26.5380 C.cat 227  ARG227      0.5346
    190  NH1        9.9780  -21.0870   26.1440 N.pl3 227  ARG227      0.1354
    191  NH2        8.0940  -22.5330   26.4500 N.pl3 227  ARG227      0.1354
    192  N          7.9040  -15.9800   32.7030 N.3   230  LYS230     -0.1231
    193  CA         9.1470  -15.4590   31.9910 C.3   230  LYS230      0.1693
    194  C          8.9030  -13.9560   31.6630 C.2   230  LYS230      0.2592
    195  O          7.7470  -13.4160   31.4930 O.2   230  LYS230     -0.2718
    196  CB         9.5050  -16.2660   30.7850 C.3   230  LYS230      0.0285
    197  CG         9.9210  -17.7290   30.9650 C.3   230  LYS230      0.0035
    198  CD        10.9600  -17.9560   32.0090 C.3   230  LYS230      0.0206
    199  CE        11.6110  -19.3300   32.1340 C.3   230  LYS230      0.1093
    200  NZ        12.9610  -19.2680   31.4810 N.3   230  LYS230     -0.1314
    201  N          9.9940  -13.2420   31.4140 N.am  231  TYR231     -0.1962
    202  CA         9.8210  -11.8120   31.1030 C.3   231  TYR231      0.1771
    203  C         10.5880  -11.3800   29.8600 C.2   231  TYR231      0.2620
    204  O         11.5440  -12.0700   29.3600 O.2   231  TYR231     -0.2715
    205  CB        10.1740  -10.9710   32.4090 C.3   231  TYR231      0.0574
    206  CG         9.4310  -11.4710   33.5760 C.ar  231  TYR231     -0.0198
    207  CD1        8.0960  -10.9990   33.7140 C.ar  231  TYR231     -0.0009
    208  CD2        9.9470  -12.3390   34.5770 C.ar  231  TYR231     -0.0009
    209  CE1        7.1940  -11.3680   34.7450 C.ar  231  TYR231      0.0417
    210  CE2        9.1080  -12.7790   35.6860 C.ar  231  TYR231      0.0417
    211  CZ         7.8100  -12.2150   35.7300 C.ar  231  TYR231      0.1957
    212  OH         6.9260  -12.5840   36.7520 O.3   231  TYR231     -0.2866
    213  N         10.2960  -10.1500   29.3350 N.am  232  GLY232     -0.1940
    214  CA        11.1580   -9.8080   28.1520 C.3   232  GLY232      0.2014
    215  C         12.3300   -9.0100   28.6610 C.2   232  GLY232      0.2639
    216  O         12.0620   -8.3030   29.7070 O.2   232  GLY232     -0.2714
    217  N         13.4870   -9.0460   27.9930 N.am  233  PHE233     -0.1959
    218  CA        14.6520   -8.2260   28.5270 C.3   233  PHE233      0.1771
    219  C         14.9480   -7.1760   27.4860 C.2   233  PHE233      0.2619
    220  O         14.7790   -7.4830   26.2330 O.2   233  PHE233     -0.2715
    221  CB        15.8060   -9.0890   28.9430 C.3   233  PHE233      0.0574
    222  CG        15.5760   -9.8320   30.2970 C.ar  233  PHE233     -0.0200
    223  CD1       14.8050  -10.9050   30.4170 C.ar  233  PHE233     -0.0042
    224  CD2       16.2450   -9.2750   31.4410 C.ar  233  PHE233     -0.0042
    225  CE1       14.6380  -11.6180   31.5960 C.ar  233  PHE233     -0.0003
    226  CE2       16.1150   -9.9890   32.6820 C.ar  233  PHE233     -0.0003
    227  CZ        15.3060  -11.1020   32.7800 C.ar  233  PHE233     -0.0000
    228  N         15.2190   -5.9540   27.9290 N.am  234  TYR234     -0.1974
    229  CA        15.4040   -4.7330   27.2270 C.3   234  TYR234      0.1639
    230  C         16.7060   -4.0050   27.5390 C.2   234  TYR234      0.2290
    231  O         17.0790   -3.9170   28.6780 O.2   234  TYR234     -0.2864
    232  CB        14.2380   -3.7270   27.6110 C.3   234  TYR234      0.0560
    233  CG        12.8670   -4.1900   27.1170 C.ar  234  TYR234     -0.0198
    234  CD1       12.1750   -5.1690   27.9360 C.ar  234  TYR234     -0.0009
    235  CD2       12.2270   -3.9090   25.8990 C.ar  234  TYR234     -0.0009
    236  CE1       10.9560   -5.7220   27.5660 C.ar  234  TYR234      0.0417
    237  CE2       10.9780   -4.3790   25.5630 C.ar  234  TYR234      0.0417
    238  CZ        10.4430   -5.3740   26.3300 C.ar  234  TYR234      0.1957
    239  OH         9.2950   -5.9900   25.9660 O.3   234  TYR234     -0.2866
@<TRIPOS>BOND
     1     7     6    1
     2     1     2    1
     3     6     5    1
     4     6     8    1
     5     5     2    1
     6     2     3    1
     7     3     9   am
     8     3     4    2
     9    40    39    1
    10     9    10    1
    11    12    11    2
    12    39    38    1
    13    11    10    1
    14    10    13    1
    15    13    14    1
    16    38    41    1
    17    38    37    1
    18    41    42    1
    19   124   123    1
    20   119   118   ar
    21   122   123    1
    22   122   121    1
    23    28    27    2
    24    42    44   ar
    25    42    43   ar
    26    25    26    1
    27   118   120   ar
    28   118   117    1
    29    27    26    1
    30   121   114   am
    31    47    44   ar
    32    47    49   ar
    33   115   114    2
    34    44    46   ar
    35    43    45   ar
    36    18    17    1
    37    26    29    1
    38    29    30    1
    39   114   113    1
    40   117   116    1
    41    49    50   ar
    42   128   127    1
    43    17    16    1
    44   116   113    1
    45    45    46   ar
    46    46    48   ar
    47   113   112    1
    48    32    30   ar
    49    32    34   ar
    50    30    31   ar
    51    50    48   ar
    52   127   126    1
    53   125   126    1
    54    16    15    1
    55    16    19    1
    56   129   126    1
    57   129   130    1
    58   112   108   am
    59    22    24   ar
    60    22    20   ar
    61    34    35   ar
    62    31    33   ar
    63    79    78    2
    64   109   108    2
    65    24    23   ar
    66   108   107    1
    67    78    77    1
    68    19    20    1
    69    20    21   ar
    70   111   110    1
    71   111   180    1
    72   110   107    1
    73    35    33   ar
    74    35    36    1
    75    76    77    1
    76   107   106    1
    77    23    21   ar
    78    77    80    1
    79   106   103   am
    80   180   179    1
    81    80    81    1
    82   134   133    2
    83    81    82    1
    84   137   135    1
    85   135   136    1
    86   135   132    1
    87   103   102    1
    88   103   104    2
    89   141   140    2
    90   102   105    1
    91   102   101    1
    92   179   176    1
    93   133   132    1
    94   133   138   am
    95    96    95    2
    96   131   132    1
    97    74    73    1
    98    84    82   ar
    99    75    73    1
   100    82    83   ar
   101   140   139    1
   102   140   144   am
   103   139   138    1
   104   139   142    1
   105   101    95   am
   106    95    94    1
   107    73    72    1
   108   176   175    1
   109   176   177    1
   110   175   173   am
   111   174   173    2
   112   173   172    1
   113   178   177    1
   114   144   145    1
   115   143   142    1
   116   145   148    1
   117   145   146    1
   118   172   171    1
   119    72    69    1
   120   148   149    1
   121    94    93    1
   122    94    97    1
   123   171   164   am
   124    69    68    1
   125    69    70    1
   126   158   146   am
   127   158   159    1
   128   146   147    2
   129    97    98    1
   130   161   160    2
   131   237   235   ar
   132   237   238   ar
   133    98    99   ar
   134    98   100   ar
   135    68    62   am
   136   235   233   ar
   137    71    70    2
   138   160   159    1
   139   160   162   am
   140   239   238    1
   141   149   150   ar
   142   149   151   ar
   143   190   189    1
   144    51    52    1
   145   220   219    2
   146   238   236   ar
   147   150   152   ar
   148   164   163    1
   149   164   165    2
   150   191   189    1
   151   162   163    1
   152   189   188    2
   153   163   166    1
   154    62    63    2
   155    62    61    1
   156   188   187    1
   157   233   232    1
   158   233   234   ar
   159   187   186    1
   160   229   230    1
   161   229   232    1
   162   229   228    1
   163    52    53    1
   164    52    55    1
   165   151   154   ar
   166   151   153   ar
   167    53    60   am
   168    53    54    2
   169    60    61    1
   170   219   228   am
   171   219   218    1
   172   230   231    2
   173   236   234   ar
   174   154   156   ar
   175   186   185    1
   176    61    64    1
   177   152   153   ar
   178   181   182    1
   179   166   167    1
   180   217   218    1
   181   217   215   am
   182   214   215    1
   183   214   213    1
   184   167   168    1
   185   153   155   ar
   186   185   182    1
   187   218   221    1
   188    55    56    1
   189   215   216    2
   190   182   183    1
   191   156   157   ar
   192   221   222    1
   193    66    65    2
   194    64    65    1
   195   213   203   am
   196   204   203    2
   197   155   157   ar
   198    65    67   am
   199   168   170   ar
   200   168   169   ar
   201    92    90    1
   202   203   202    1
   203    56    57    1
   204   183   184    1
   205   222   223   ar
   206   222   224   ar
   207    90    89    1
   208   223   225   ar
   209    91    89    1
   210   196   197    1
   211   196   193    1
   212   197   198    1
   213   202   201    1
   214   202   205    1
   215    58    57   ar
   216    57    59   ar
   217    89    86    1
   218   201   194   am
   219   224   226   ar
   220   200   199    1
   221   195   194    2
   222   225   227   ar
   223   194   193    1
   224   193   192    1
   225   198   199    1
   226   205   206    1
   227    86    85    1
   228    86    87    1
   229   226   227   ar
   230   206   207   ar
   231   206   208   ar
   232    87    88    1
   233   207   209   ar
   234   208   210   ar
   235   209   211   ar
   236   210   211   ar
   237   211   212    1
