@<TRIPOS>MOLECULE
tmp/1nsaA00.pdb
 117 108 0 0 0
SMALL
GASTEIGER

@<TRIPOS>ATOM
      1  N         59.5820   11.6490   22.9120 N.3    35  ASP35      -0.1239
      2  CA        60.7740   10.7930   23.1110 C.3    35  ASP35       0.1674
      3  C         60.4450    9.4810   23.8250 C.2    35  ASP35       0.2266
      4  O         61.2750    8.5890   23.8470 O.2    35  ASP35      -0.2867
      5  CB        61.9340   11.5650   23.8000 C.3    35  ASP35       0.1410
      6  CG        61.5970   12.0800   25.2060 C.2    35  ASP35       0.3668
      7  OD1       60.5830   11.6680   25.8430 O.co2  35  ASP35      -0.2456
      8  OD2       62.3830   12.9350   25.6850 O.co2  35  ASP35      -0.2456
      9  N         71.6250   16.0880   24.2010 N.3   155  HIS155     -0.1241
     10  CA        71.3400   14.7960   23.5400 C.3   155  HIS155      0.1621
     11  C         72.2360   14.5740   22.3190 C.2   155  HIS155      0.2264
     12  O         72.2090   15.4060   21.4020 O.2   155  HIS155     -0.2867
     13  CB        69.8620   14.6470   23.1200 C.3   155  HIS155      0.0745
     14  CG        68.9580   14.6970   24.3600 C.ar  155  HIS155      0.0817
     15  ND1       67.9090   15.6290   24.5150 N.ar  155  HIS155     -0.2268
     16  CD2       69.0570   14.0010   25.4740 C.ar  155  HIS155      0.1154
     17  CE1       67.4320   15.4580   25.8000 C.ar  155  HIS155      0.1986
     18  NE2       68.1440   14.4650   26.3960 N.ar  155  HIS155     -0.2212
     19  N         68.7260   15.3200   30.3100 N.3   230  ASN230     -0.1225
     20  CA        67.5470   16.1770   30.5800 C.3   230  ASN230      0.1785
     21  C         66.4070   15.5430   31.3970 C.2   230  ASN230      0.2597
     22  O         65.3330   16.1330   31.5680 O.2   230  ASN230     -0.2718
     23  CB        66.9590   16.7850   29.2820 C.3   230  ASN230      0.1169
     24  CG        66.5590   18.2300   29.5600 C.2   230  ASN230      0.2627
     25  OD1       67.1340   18.9270   30.4070 O.2   230  ASN230     -0.2716
     26  ND2       65.5830   18.6390   28.8000 N.am  230  ASN230     -0.0877
     27  N         66.7030   14.4180   32.0260 N.am  231  ARG231     -0.1979
     28  CA        65.8370   13.9170   33.0900 C.3   231  ARG231      0.1597
     29  C         66.5620   13.8470   34.4190 C.2   231  ARG231      0.2287
     30  O         65.9690   13.3040   35.3400 O.2   231  ARG231     -0.2864
     31  CB        65.1900   12.5500   32.7540 C.3   231  ARG231      0.0334
     32  CG        64.0430   12.7870   31.7430 C.3   231  ARG231      0.0492
     33  CD        63.5220   11.5530   30.9840 C.3   231  ARG231      0.2205
     34  NE        62.1750   11.8620   30.4670 N.pl3 231  ARG231     -0.0865
     35  CZ        61.8820   12.1650   29.2100 C.cat 231  ARG231      0.5346
     36  NH1       62.8360   12.1310   28.3040 N.pl3 231  ARG231      0.1354
     37  NH2       60.6250   12.2540   28.7510 N.pl3 231  ARG231      0.1354
     38  N         60.5150   26.4780   24.4450 N.3   290  LEU290     -0.1245
     39  CA        59.7840   26.0570   25.6310 C.3   290  LEU290      0.1561
     40  C         60.2670   26.8530   26.8350 C.2   290  LEU290      0.2260
     41  O         61.4450   27.2010   26.8700 O.2   290  LEU290     -0.2867
     42  CB        59.9570   24.5540   25.8620 C.3   290  LEU290      0.0270
     43  CG        59.3780   23.7560   24.6970 C.3   290  LEU290      0.0019
     44  CD1       59.9590   22.3520   24.6740 C.3   290  LEU290      0.0001
     45  CD2       57.8460   23.6710   24.7510 C.3   290  LEU290      0.0001
     46  N         57.9570   22.0440   32.7650 N.3   294  SER294     -0.1217
     47  CA        57.6800   20.7380   32.1430 C.3   294  SER294      0.1889
     48  C         57.2570   19.6960   33.1890 C.2   294  SER294      0.2288
     49  O         56.4210   18.8320   32.9300 O.2   294  SER294     -0.2866
     50  CB        58.8480   20.2380   31.2770 C.3   294  SER294      0.2089
     51  OG        59.0150   21.0720   30.1130 O.3   294  SER294     -0.2183
     52  N         53.8570   20.1340   25.3420 N.3   334  ILE334     -0.1231
     53  CA        54.1680   18.7350   25.0120 C.3   334  ILE334      0.1692
     54  C         53.3600   17.8500   25.9500 C.2   334  ILE334      0.2592
     55  O         52.1420   17.8390   25.8240 O.2   334  ILE334     -0.2718
     56  CB        55.6970   18.4410   24.9790 C.3   334  ILE334      0.0266
     57  CG1       56.3730   19.2620   23.8540 C.3   334  ILE334      0.0019
     58  CG2       56.0350   16.9310   24.8220 C.3   334  ILE334      0.0020
     59  CD1       57.9100   19.2370   23.9720 C.3   334  ILE334      0.0001
     60  N         53.9420   17.4940   27.0540 N.am  335  TYR335     -0.1976
     61  CA        53.3110   16.6510   28.0410 C.3   335  TYR335      0.1639
     62  C         54.2380   16.7460   29.2540 C.2   335  TYR335      0.2290
     63  O         55.4440   16.8640   29.0050 O.2   335  TYR335     -0.2864
     64  CB        53.4220   15.2450   27.4170 C.3   335  TYR335      0.0560
     65  CG        52.5530   14.2320   28.1910 C.ar  335  TYR335     -0.0198
     66  CD1       51.1830   14.2680   28.0460 C.ar  335  TYR335     -0.0009
     67  CD2       53.1310   13.3940   29.1160 C.ar  335  TYR335     -0.0009
     68  CE1       50.3840   13.4980   28.8500 C.ar  335  TYR335      0.0417
     69  CE2       52.3440   12.6060   29.9310 C.ar  335  TYR335      0.0417
     70  CZ        50.9640   12.6820   29.8010 C.ar  335  TYR335      0.1957
     71  OH        50.1690   12.0150   30.6780 O.3   335  TYR335     -0.2866
     72  N         57.0520   16.2370   31.8340 N.3   337  ALA337     -0.1231
     73  CA        58.2820   15.4430   32.0080 C.3   337  ALA337      0.1694
     74  C         59.1640   16.1590   33.0320 C.2   337  ALA337      0.2591
     75  O         59.3500   17.3470   32.8330 O.2   337  ALA337     -0.2718
     76  CB        59.0580   15.3890   30.6810 C.3   337  ALA337      0.0304
     77  N         59.6290   15.4330   34.0650 N.am  338  ALA338     -0.1980
     78  CA        60.4700   15.8570   35.1950 C.3   338  ALA338      0.1597
     79  C         61.9580   15.6790   34.8660 C.2   338  ALA338      0.2287
     80  O         62.2900   14.7650   34.0900 O.2   338  ALA338     -0.2864
     81  CB        60.1740   14.9780   36.4110 C.3   338  ALA338      0.0319
     82  N         64.1830   18.1980   33.9310 N.3   340  GLY340     -0.1225
     83  CA        64.9230   18.9830   32.8920 C.3   340  GLY340      0.1811
     84  C         65.7070   20.1550   33.5050 C.2   340  GLY340      0.2280
     85  O         65.3890   20.6540   34.6020 O.2   340  GLY340     -0.2866
     86  N         66.0640   23.2450   32.3860 N.3   342  ASP342     -0.1225
     87  CA        65.3790   24.5510   32.2620 C.3   342  ASP342      0.1805
     88  C         64.5180   24.8920   33.4840 C.2   342  ASP342      0.2597
     89  O         64.6550   25.9520   34.0950 O.2   342  ASP342     -0.2718
     90  CB        64.6610   24.7330   30.9070 C.3   342  ASP342      0.1424
     91  CG        63.6460   23.6330   30.5920 C.2   342  ASP342      0.3668
     92  OD1       63.5420   22.6310   31.3500 O.co2 342  ASP342     -0.2456
     93  OD2       62.9500   23.7740   29.5490 O.co2 342  ASP342     -0.2456
     94  N         63.8260   23.8610   33.9350 N.am  343  ASP343     -0.1974
     95  CA        62.9520   23.8870   35.1270 C.3   343  ASP343      0.1709
     96  C         63.8270   23.9700   36.3460 C.2   343  ASP343      0.2293
     97  O         63.4200   24.5730   37.3180 O.2   343  ASP343     -0.2864
     98  CB        62.1230   22.5840   35.2470 C.3   343  ASP343      0.1436
     99  CG        60.9630   22.5500   34.2500 C.2   343  ASP343      0.3671
    100  OD1       60.7440   23.5370   33.4810 O.co2 343  ASP343     -0.2456
    101  OD2       60.2680   21.4970   34.2190 O.co2 343  ASP343     -0.2456
    102  N         64.2080   26.5350   26.5970 N.3   355  THR355     -0.1218
    103  CA        64.7550   25.5190   25.6910 C.3   355  THR355      0.1862
    104  C         64.3750   25.8750   24.2660 C.2   355  THR355      0.2287
    105  O         63.1910   26.0940   23.9930 O.2   355  THR355     -0.2866
    106  CB        64.1250   24.1540   25.9900 C.3   355  THR355      0.1770
    107  OG1       64.3860   23.8430   27.3410 O.3   355  THR355     -0.2211
    108  CG2       64.6570   23.0060   25.1170 C.3   355  THR355      0.0375
    109  N         64.1660   24.2400   20.4640 N.3   357  GLU357     -0.1245
    110  CA        64.1750   23.0100   19.6340 C.3   357  GLU357      0.1567
    111  C         64.4210   23.4840   18.2110 C.2   357  GLU357      0.2260
    112  O         63.5330   24.1440   17.6900 O.2   357  GLU357     -0.2867
    113  CB        62.8210   22.2390   19.6810 C.3   357  GLU357      0.0388
    114  CG        62.3860   21.8820   21.0950 C.3   357  GLU357      0.1160
    115  CD        63.1880   20.6960   21.6660 C.2   357  GLU357      0.3649
    116  OE1       63.8130   19.9520   20.8470 O.co2 357  GLU357     -0.2457
    117  OE2       63.1920   20.4790   22.9210 O.co2 357  GLU357     -0.2457
@<TRIPOS>BOND
     1   112   111    2
     2   111   110    1
     3   110   113    1
     4   110   109    1
     5   113   114    1
     6   116   115   ar
     7   114   115    1
     8    12    11    2
     9   115   117   ar
    10    11    10    1
    11     1     2    1
    12     2     5    1
    13     2     3    1
    14    13    10    1
    15    13    14    1
    16    10     9    1
    17     5     6    1
    18     3     4    2
    19    57    59    1
    20    57    56    1
    21   105   104    2
    22   104   103    1
    23    14    15   ar
    24    14    16   ar
    25    38    39    1
    26    15    17   ar
    27    44    43    1
    28    43    45    1
    29    43    42    1
    30    58    56    1
    31    56    53    1
    32    53    52    1
    33    53    54    1
    34   108   106    1
    35     6     8   ar
    36     6     7   ar
    37    16    18   ar
    38    39    42    1
    39    39    40    1
    40   103   106    1
    41   103   102    1
    42    17    18   ar
    43    55    54    2
    44    54    60   am
    45   106   107    1
    46    40    41    2
    47    60    61    1
    48    64    61    1
    49    64    65    1
    50    61    62    1
    51    66    65   ar
    52    66    68   ar
    53    65    67   ar
    54    36    35    1
    55    37    35    1
    56    26    24   am
    57    68    70   ar
    58    63    62    2
    59    67    69   ar
    60    35    34    2
    61    23    24    1
    62    23    20    1
    63    93    91   ar
    64    24    25    2
    65    70    69   ar
    66    70    71    1
    67    51    50    1
    68    19    20    1
    69    34    33    1
    70    20    21    1
    71    91    90    1
    72    91    92   ar
    73    76    73    1
    74    90    87    1
    75    33    32    1
    76    50    47    1
    77    21    22    2
    78    21    27   am
    79    32    31    1
    80    72    73    1
    81    73    74    1
    82    27    28    1
    83    47    46    1
    84    47    48    1
    85    87    86    1
    86    87    88    1
    87    31    28    1
    88    75    74    2
    89    83    84    1
    90    83    82    1
    91    49    48    2
    92    74    77   am
    93    28    29    1
    94   100    99   ar
    95    88    94   am
    96    88    89    2
    97    84    85    2
    98    94    95    1
    99    77    78    1
   100    80    79    2
   101   101    99   ar
   102    99    98    1
   103    29    30    2
   104    79    78    1
   105    95    98    1
   106    95    96    1
   107    78    81    1
   108    96    97    2
