@<TRIPOS>MOLECULE
tmp/1nscA01.pdb
 163 153 0 0 0
SMALL
GASTEIGER

@<TRIPOS>ATOM
      1  N          6.4720   52.7360   -4.4080 N.3    40  ARG40      -0.1231
      2  CA         5.2300   53.2850   -3.8650 C.3    40  ARG40       0.1694
      3  C          4.2160   52.1860   -4.1490 C.2    40  ARG40       0.2591
      4  O          4.5690   51.1580   -4.7590 O.2    40  ARG40      -0.2718
      5  CB         4.7630   54.5830   -4.5200 C.3    40  ARG40       0.0321
      6  CG         5.1270   55.8000   -3.6370 C.3    40  ARG40       0.0489
      7  CD         4.0880   56.9240   -3.7670 C.3    40  ARG40       0.2205
      8  NE         2.7740   56.4720   -3.2700 N.pl3  40  ARG40      -0.0865
      9  CZ         1.5770   56.9270   -3.6840 C.cat  40  ARG40       0.5346
     10  NH1        1.4980   57.8880   -4.6210 N.pl3  40  ARG40       0.1354
     11  NH2        0.4500   56.4180   -3.1380 N.pl3  40  ARG40       0.1354
     12  N          2.9780   52.3600   -3.7090 N.am   41  GLU41      -0.1979
     13  CA         1.9010   51.3650   -3.7520 C.3    41  GLU41       0.1602
     14  C          2.3190   49.9640   -3.2480 C.2    41  GLU41       0.2287
     15  O          2.1680   48.9360   -3.9390 O.2    41  GLU41      -0.2864
     16  CB         1.3360   51.2010   -5.1540 C.3    41  GLU41       0.0415
     17  CG         0.7590   52.4930   -5.6940 C.3    41  GLU41       0.1163
     18  CD         1.7580   53.4710   -6.2550 C.2    41  GLU41       0.3649
     19  OE1        2.8130   53.0920   -6.7970 O.co2  41  GLU41      -0.2457
     20  OE2        1.4750   54.6780   -6.1560 O.co2  41  GLU41      -0.2457
     21  N          4.0060   58.6420  -11.5290 N.3    73  ASP73      -0.1225
     22  CA         3.3240   57.3910  -11.3180 C.3    73  ASP73       0.1805
     23  C          3.5400   56.4050  -12.4560 C.2    73  ASP73       0.2597
     24  O          3.6010   55.2010  -12.1820 O.2    73  ASP73      -0.2718
     25  CB         1.8070   57.6000  -11.1600 C.3    73  ASP73       0.1424
     26  CG         1.4250   58.5230  -10.0020 C.2    73  ASP73       0.3668
     27  OD1        2.1170   58.5900   -8.9780 O.co2  73  ASP73      -0.2456
     28  OD2        0.4440   59.2480  -10.1510 O.co2  73  ASP73      -0.2456
     29  N          3.6700   56.8240  -13.7200 N.am   74  ARG74      -0.1979
     30  CA         3.7690   55.8720  -14.8080 C.3    74  ARG74       0.1597
     31  C          4.9410   56.2160  -15.7100 C.2    74  ARG74       0.2287
     32  O          5.2130   57.3850  -15.9500 O.2    74  ARG74      -0.2864
     33  CB         2.4900   55.8840  -15.6070 C.3    74  ARG74       0.0334
     34  CG         1.2340   55.6540  -14.7450 C.3    74  ARG74       0.0492
     35  CD        -0.0210   55.7040  -15.5990 C.3    74  ARG74       0.2205
     36  NE        -0.1360   57.0120  -16.1930 N.pl3  74  ARG74      -0.0865
     37  CZ        -0.4600   58.1320  -15.5050 C.cat  74  ARG74       0.5346
     38  NH1       -0.7400   58.1420  -14.1780 N.pl3  74  ARG74       0.1354
     39  NH2       -0.4240   59.2720  -16.2100 N.pl3  74  ARG74       0.1354
     40  N          8.9400   51.3280  -14.3030 N.3    78  ARG78      -0.1245
     41  CA         8.3750   50.7770  -13.0580 C.3    78  ARG78       0.1563
     42  C          8.1450   49.2910  -13.1980 C.2    78  ARG78       0.2260
     43  O          7.8240   48.7900  -14.2890 O.2    78  ARG78      -0.2867
     44  CB         7.0190   51.4260  -12.6240 C.3    78  ARG78       0.0307
     45  CG         7.2680   52.8900  -12.2490 C.3    78  ARG78       0.0489
     46  CD         6.1240   53.5210  -11.5080 C.3    78  ARG78       0.2205
     47  NE         6.2250   53.2100  -10.0850 N.pl3  78  ARG78      -0.0865
     48  CZ         5.2750   53.6050   -9.2180 C.cat  78  ARG78       0.5346
     49  NH1        4.1500   54.1980   -9.6280 N.pl3  78  ARG78       0.1354
     50  NH2        5.4290   53.3170   -7.9150 N.pl3  78  ARG78       0.1354
     51  N          3.1690   49.6090  -13.9880 N.3   101  TRP101     -0.1227
     52  CA         2.9990   50.7980  -13.1900 C.3   101  TRP101      0.1737
     53  C          1.6820   50.8160  -12.4020 C.2   101  TRP101      0.2596
     54  O          1.3300   51.8420  -11.8140 O.2   101  TRP101     -0.2718
     55  CB         3.1440   52.0390  -14.0890 C.3   101  TRP101      0.0564
     56  CG         2.4700   52.1030  -15.4680 C.ar  101  TRP101      0.0003
     57  CD1        3.2490   52.2180  -16.6030 C.ar  101  TRP101      0.0946
     58  CD2        1.1100   52.1760  -15.7360 C.ar  101  TRP101      0.0152
     59  NE1        2.3780   52.3880  -17.5890 N.ar  101  TRP101     -0.2442
     60  CE2        1.0960   52.3660  -17.1170 C.ar  101  TRP101      0.0810
     61  CE3       -0.0820   52.1070  -15.0300 C.ar  101  TRP101      0.0012
     62  CZ2       -0.1170   52.4960  -17.7980 C.ar  101  TRP101      0.0191
     63  CZ3       -1.2810   52.2290  -15.7090 C.ar  101  TRP101      0.0001
     64  CH2       -1.3000   52.4270  -17.0820 C.ar  101  TRP101      0.0015
     65  N          0.9770   49.6740  -12.3550 N.am  102  SER102     -0.1952
     66  CA        -0.1750   49.4270  -11.5030 C.3   102  SER102      0.1924
     67  C         -0.1850   47.9060  -11.3210 C.2   102  SER102      0.2314
     68  O          0.1430   47.1580  -12.2630 O.2   102  SER102     -0.2863
     69  CB        -1.4580   49.9560  -12.2010 C.3   102  SER102      0.2116
     70  OG        -2.6520   49.7040  -11.4790 O.3   102  SER102     -0.2180
     71  N         -5.8120   55.3380  -19.1850 N.3   145  ILE145     -0.1245
     72  CA        -5.0770   54.7200  -18.0750 C.3   145  ILE145      0.1561
     73  C         -5.8210   53.5630  -17.4090 C.2   145  ILE145      0.2260
     74  O         -6.4020   53.6860  -16.3170 O.2   145  ILE145     -0.2867
     75  CB        -4.7200   55.7890  -17.0060 C.3   145  ILE145      0.0252
     76  CG1       -4.0800   57.0220  -17.6770 C.3   145  ILE145      0.0019
     77  CG2       -3.7000   55.2060  -16.0150 C.3   145  ILE145      0.0019
     78  CD1       -4.0280   58.2370  -16.7230 C.3   145  ILE145      0.0001
     79  N         -6.0230   50.4520  -15.3320 N.3   147  ARG147     -0.1245
     80  CA        -5.3030   50.3730  -14.0800 C.3   147  ARG147      0.1563
     81  C         -6.0040   49.4140  -13.1230 C.2   147  ARG147      0.2260
     82  O         -7.1120   48.9540  -13.4270 O.2   147  ARG147     -0.2867
     83  CB        -5.2200   51.8070  -13.5240 C.3   147  ARG147      0.0307
     84  CG        -6.5470   52.5080  -13.1700 C.3   147  ARG147      0.0489
     85  CD        -6.3420   53.9950  -13.0920 C.3   147  ARG147      0.2205
     86  NE        -7.5440   54.7600  -12.7230 N.pl3 147  ARG147     -0.0865
     87  CZ        -8.3860   55.3290  -13.6060 C.cat 147  ARG147      0.5346
     88  NH1       -8.2130   55.2310  -14.9330 N.pl3 147  ARG147      0.1354
     89  NH2       -9.3860   56.0570  -13.1130 N.pl3 147  ARG147      0.1354
     90  N         -3.8590   47.8520   -6.7590 N.3   150  GLU150     -0.1245
     91  CA        -2.7440   48.1800   -5.8800 C.3   150  GLU150      0.1567
     92  C         -2.9040   47.4680   -4.5460 C.2   150  GLU150      0.2260
     93  O         -2.4530   47.9370   -3.4910 O.2   150  GLU150     -0.2867
     94  CB        -2.6110   49.7240   -5.6320 C.3   150  GLU150      0.0388
     95  CG        -2.8190   50.6580   -6.8420 C.3   150  GLU150      0.1160
     96  CD        -1.9890   50.3340   -8.0860 C.2   150  GLU150      0.3649
     97  OE1       -1.1420   49.4400   -8.1130 O.co2 150  GLU150     -0.2457
     98  OE2       -2.2000   50.9960   -9.0870 O.co2 150  GLU150     -0.2457
     99  N         -9.5080   60.2000  -14.6610 N.3   169  ALA169     -0.1245
    100  CA        -9.3530   60.4030  -13.2260 C.3   169  ALA169      0.1562
    101  C        -10.2410   61.5540  -12.7110 C.2   169  ALA169      0.2260
    102  O        -10.5370   61.6440  -11.5130 O.2   169  ALA169     -0.2867
    103  CB        -7.9120   60.7270  -12.9020 C.3   169  ALA169      0.0290
    104  N        -12.3520   53.2330   -8.5130 N.3   199  GLU199     -0.1231
    105  CA       -11.0060   52.7820   -8.7930 C.3   199  GLU199      0.1699
    106  C        -10.3340   52.3490   -7.4930 C.2   199  GLU199      0.2592
    107  O        -10.8940   52.4930   -6.4080 O.2   199  GLU199     -0.2718
    108  CB       -10.1980   53.9030   -9.4600 C.3   199  GLU199      0.0402
    109  CG       -10.0360   55.1130   -8.5760 C.3   199  GLU199      0.1161
    110  CD        -9.1680   56.1970   -9.1730 C.2   199  GLU199      0.3649
    111  OE1       -8.7800   56.1600  -10.3350 O.co2 199  GLU199     -0.2457
    112  OE2       -8.9180   57.1670   -8.4880 O.co2 199  GLU199     -0.2457
    113  N         -9.1530   51.7470   -7.6080 N.am  200  GLU200     -0.1979
    114  CA        -8.3700   51.2950   -6.4680 C.3   200  GLU200      0.1602
    115  C         -9.1530   50.5550   -5.3860 C.2   200  GLU200      0.2287
    116  O         -9.0200   50.8020   -4.1780 O.2   200  GLU200     -0.2864
    117  CB        -7.6300   52.5060   -5.8530 C.3   200  GLU200      0.0415
    118  CG        -6.5020   52.9290   -6.8110 C.3   200  GLU200      0.1163
    119  CD        -5.6220   54.0470   -6.2920 C.2   200  GLU200      0.3649
    120  OE1       -5.9890   54.6920   -5.2980 O.co2 200  GLU200     -0.2457
    121  OE2       -4.5590   54.2720   -6.8680 O.co2 200  GLU200     -0.2457
    122  N        -12.2360   53.9030   -4.3300 N.3   216  ARG216     -0.1245
    123  CA       -11.9700   55.3300   -4.3620 C.3   216  ARG216      0.1563
    124  C        -12.7410   55.9460   -5.5210 C.2   216  ARG216      0.2260
    125  O        -12.8260   55.3420   -6.6080 O.2   216  ARG216     -0.2867
    126  CB       -10.4460   55.5260   -4.5530 C.3   216  ARG216      0.0307
    127  CG        -9.9150   56.9370   -4.8570 C.3   216  ARG216      0.0489
    128  CD        -8.4170   56.8750   -5.1520 C.3   216  ARG216      0.2205
    129  NE        -7.8550   58.1550   -5.5840 N.pl3 216  ARG216     -0.0865
    130  CZ        -6.5330   58.3470   -5.6090 C.cat 216  ARG216      0.5346
    131  NH1       -5.6340   57.4120   -5.2580 N.pl3 216  ARG216      0.1354
    132  NH2       -6.1120   59.5360   -6.0320 N.pl3 216  ARG216      0.1354
    133  N        -12.3440   59.3000   -7.3750 N.3   218  ASN218     -0.1240
    134  CA       -11.4270   60.4080   -7.5550 C.3   218  ASN218      0.1653
    135  C        -12.0470   61.7020   -8.0620 C.2   218  ASN218      0.2266
    136  O        -11.4250   62.7780   -8.0840 O.2   218  ASN218     -0.2867
    137  CB       -10.3300   60.0950   -8.5470 C.3   218  ASN218      0.1155
    138  CG        -9.0550   60.8480   -8.2070 C.2   218  ASN218      0.2627
    139  OD1       -8.5720   60.7990   -7.0590 O.2   218  ASN218     -0.2716
    140  ND2       -8.4820   61.6100   -9.1320 N.am  218  ASN218     -0.0877
    141  N         -2.4950   63.7450    3.3770 N.3   298  ARG298     -0.1245
    142  CA        -2.2230   62.3300    3.6190 C.3   298  ARG298      0.1563
    143  C         -1.3420   62.2170    4.8770 C.2   298  ARG298      0.2260
    144  O         -0.1400   61.8830    4.8390 O.2   298  ARG298     -0.2867
    145  CB        -1.5320   61.7970    2.3610 C.3   298  ARG298      0.0307
    146  CG        -2.4140   61.8770    1.1260 C.3   298  ARG298      0.0489
    147  CD        -1.8850   61.0520   -0.0510 C.3   298  ARG298      0.2205
    148  NE        -2.9080   60.9630   -1.0780 N.pl3 298  ARG298     -0.0865
    149  CZ        -2.7090   60.4560   -2.2930 C.cat 298  ARG298      0.5346
    150  NH1       -1.5080   59.9910   -2.6750 N.pl3 298  ARG298      0.1354
    151  NH2       -3.7690   60.3460   -3.0920 N.pl3 298  ARG298      0.1354
    152  N         -1.5050   55.3740    1.0890 N.3   333  TYR333     -0.1241
    153  CA        -2.4510   54.2950    0.7840 C.3   333  TYR333      0.1605
    154  C         -2.5760   53.2920    1.9080 C.2   333  TYR333      0.2264
    155  O         -1.6250   53.0740    2.6380 O.2   333  TYR333     -0.2867
    156  CB        -2.0420   53.5000   -0.4620 C.3   333  TYR333      0.0534
    157  CG        -2.3180   54.2080   -1.7880 C.ar  333  TYR333     -0.0201
    158  CD1       -2.6590   55.5520   -1.8010 C.ar  333  TYR333     -0.0009
    159  CD2       -2.2020   53.4900   -2.9770 C.ar  333  TYR333     -0.0009
    160  CE1       -2.8900   56.2050   -2.9920 C.ar  333  TYR333      0.0417
    161  CE2       -2.4410   54.1440   -4.1740 C.ar  333  TYR333      0.0417
    162  CZ        -2.7820   55.4770   -4.1570 C.ar  333  TYR333      0.1957
    163  OH        -3.1120   56.1120   -5.3300 O.3   333  TYR333     -0.2866
@<TRIPOS>BOND
     1    71    72    1
     2    72    73    1
     3    72    75    1
     4    62    60   ar
     5    62    64   ar
     6    76    75    1
     7    76    78    1
     8    59    60   ar
     9    59    57   ar
    10    73    74    2
    11    60    58   ar
    12    64    63   ar
    13    75    77    1
    14    57    56   ar
    15    39    37    1
    16    36    35    1
    17    36    37    2
    18    32    31    2
    19    58    56   ar
    20    58    61   ar
    21    31    30    1
    22    63    61   ar
    23    33    30    1
    24    33    34    1
    25    35    34    1
    26    37    38    1
    27    56    55    1
    28    79    80    1
    29    88    87    1
    30    30    29    1
    31    99   100    1
    32    40    41    1
    33    43    42    2
    34    55    52    1
    35    80    83    1
    36    80    81    1
    37    51    52    1
    38    29    23   am
    39    87    89    1
    40    87    86    2
    41    83    84    1
    42    82    81    2
    43   100   103    1
    44   100   101    1
    45    42    41    1
    46    52    53    1
    47    84    85    1
    48    85    86    1
    49    41    44    1
    50   101   102    2
    51    44    45    1
    52    23    24    2
    53    23    22    1
    54    53    65   am
    55    53    54    2
    56    65    66    1
    57    68    67    2
    58    45    46    1
    59    69    66    1
    60    69    70    1
    61    21    22    1
    62    46    47    1
    63    66    67    1
    64    22    25    1
    65    25    26    1
    66   111   110   ar
    67    28    26   ar
    68    47    48    2
    69    26    27   ar
    70    49    48    1
    71   108   105    1
    72   108   109    1
    73    48    50    1
    74   110   109    1
    75   110   112   ar
    76   140   138   am
    77    98    96   ar
    78   105   104    1
    79   105   106    1
    80   137   138    1
    81   137   134    1
    82   138   139    2
    83    97    96   ar
    84    96    95    1
    85   136   135    2
    86   135   134    1
    87   113   106   am
    88   113   114    1
    89   134   133    1
    90   106   107    2
    91   121   119   ar
    92    95    94    1
    93   118   119    1
    94   118   117    1
    95    19    18   ar
    96    90    91    1
    97   125   124    2
    98   114   117    1
    99   114   115    1
   100   119   120   ar
   101    18    20   ar
   102    18    17    1
   103   132   130    1
   104    91    94    1
   105    91    92    1
   106    17    16    1
   107   130   129    2
   108   130   131    1
   109   129   128    1
   110   124   123    1
   111   115   116    2
   112   163   162    1
   113    16    13    1
   114   128   127    1
   115   127   126    1
   116     4     3    2
   117    10     9    1
   118   126   123    1
   119    92    93    2
   120     5     2    1
   121     5     6    1
   122     1     2    1
   123   123   122    1
   124   161   162   ar
   125   161   159   ar
   126   162   160   ar
   127     3     2    1
   128     3    12   am
   129    15    14    2
   130     7     6    1
   131     7     8    1
   132    13    12    1
   133    13    14    1
   134     9     8    2
   135     9    11    1
   136   151   149    1
   137   160   158   ar
   138   159   157   ar
   139   150   149    1
   140   149   148    2
   141   158   157   ar
   142   157   156    1
   143   148   147    1
   144   156   153    1
   145   147   146    1
   146   153   152    1
   147   153   154    1
   148   146   145    1
   149   154   155    2
   150   145   142    1
   151   141   142    1
   152   142   143    1
   153   144   143    2
