@<TRIPOS>MOLECULE
tmp/1nsiD03.pdb
 162 160 0 0 0
SMALL
GASTEIGER

@<TRIPOS>ATOM
      1  N         60.1290   12.6670   85.9900 N.3   118  CYS118     -0.1235
      2  CA        60.7510   11.4080   86.4010 C.3   118  CYS118      0.1677
      3  C         60.7390   10.3730   85.2960 C.2   118  CYS118      0.2270
      4  O         59.6880   10.0660   84.7420 O.2   118  CYS118     -0.2867
      5  CB        60.0660   10.8180   87.6360 C.3   118  CYS118      0.0956
      6  SG        61.2170    9.5350   88.3210 S.3   118  CYS118     -0.0801
      7  N         68.6780   17.5370   99.3920 N.3   181  GLN181     -0.1245
      8  CA        68.7910   16.0900   99.4300 C.3   181  GLN181      0.1566
      9  C         69.3460   15.7540  100.8020 C.2   181  GLN181      0.2260
     10  O         70.0770   16.5590  101.3970 O.2   181  GLN181     -0.2867
     11  CB        69.7740   15.5900   98.3770 C.3   181  GLN181      0.0367
     12  CG        69.2770   15.6180   96.9480 C.3   181  GLN181      0.0905
     13  CD        70.3140   15.0910   95.9710 C.2   181  GLN181      0.2608
     14  OE1       70.4920   15.6400   94.8860 O.2   181  GLN181     -0.2717
     15  NE2       71.0220   14.0370   96.3640 N.am  181  GLN181     -0.0878
     16  N         74.3880   15.0540  100.7690 N.3   184  ARG184     -0.1245
     17  CA        74.8510   15.9670   99.7320 C.3   184  ARG184      0.1563
     18  C         76.1330   16.6740  100.1410 C.2   184  ARG184      0.2260
     19  O         76.2370   17.1970  101.2450 O.2   184  ARG184     -0.2867
     20  CB        73.7770   16.9860   99.3540 C.3   184  ARG184      0.0307
     21  CG        73.7840   17.2700   97.8660 C.3   184  ARG184      0.0489
     22  CD        72.7950   18.3300   97.4590 C.3   184  ARG184      0.2205
     23  NE        72.6200   18.3360   96.0070 N.pl3 184  ARG184     -0.0865
     24  CZ        72.3520   19.4190   95.2810 C.cat 184  ARG184      0.5346
     25  NH1       72.2310   20.6070   95.8670 N.pl3 184  ARG184      0.1354
     26  NH2       72.2020   19.3160   93.9680 N.pl3 184  ARG184      0.1354
     27  N         81.3580    9.5020   94.7980 N.3   264  TRP264     -0.1227
     28  CA        80.0230   10.0630   94.9340 C.3   264  TRP264      0.1737
     29  C         79.1700    9.1600   95.8320 C.2   264  TRP264      0.2595
     30  O         79.4500    7.9700   95.9760 O.2   264  TRP264     -0.2718
     31  CB        79.3780   10.2390   93.5510 C.3   264  TRP264      0.0564
     32  CG        78.3010   11.2890   93.5100 C.ar  264  TRP264      0.0003
     33  CD1       76.9470   11.0800   93.5280 C.ar  264  TRP264      0.0946
     34  CD2       78.4840   12.7150   93.4880 C.ar  264  TRP264      0.0152
     35  NE1       76.2800   12.2850   93.5260 N.ar  264  TRP264     -0.2442
     36  CE2       77.1960   13.3040   93.5020 C.ar  264  TRP264      0.0810
     37  CE3       79.6120   13.5520   93.4560 C.ar  264  TRP264      0.0012
     38  CZ2       77.0050   14.6960   93.4910 C.ar  264  TRP264      0.0191
     39  CZ3       79.4210   14.9400   93.4440 C.ar  264  TRP264      0.0001
     40  CH2       78.1260   15.4950   93.4610 C.ar  264  TRP264      0.0015
     41  N         78.1690    9.7460   96.4840 N.am  265  TYR265     -0.1976
     42  CA        77.2800    8.9890   97.3560 C.3   265  TYR265      0.1639
     43  C         76.3170    8.1590   96.5220 C.2   265  TYR265      0.2290
     44  O         75.9440    8.5460   95.4130 O.2   265  TYR265     -0.2864
     45  CB        76.5190    9.9230   98.2950 C.3   265  TYR265      0.0560
     46  CG        75.7980   11.0640   97.6120 C.ar  265  TYR265     -0.0198
     47  CD1       74.4950   10.9090   97.1350 C.ar  265  TYR265     -0.0009
     48  CD2       76.4020   12.3170   97.4770 C.ar  265  TYR265     -0.0009
     49  CE1       73.8070   11.9760   96.5450 C.ar  265  TYR265      0.0417
     50  CE2       75.7220   13.3910   96.8860 C.ar  265  TYR265      0.0417
     51  CZ        74.4250   13.2130   96.4250 C.ar  265  TYR265      0.1957
     52  OH        73.7480   14.2690   95.8520 O.3   265  TYR265     -0.2866
     53  N         70.3060    8.8140   96.1060 N.3   268  PRO268     -0.2116
     54  CA        69.6790   10.0450   95.5960 C.3   268  PRO268      0.1372
     55  C         68.3210   10.2820   96.2650 C.2   268  PRO268      0.2244
     56  O         67.2950    9.7550   95.8210 O.2   268  PRO268     -0.2868
     57  CB        69.5370    9.7630   94.0990 C.3   268  PRO268      0.0268
     58  CG        69.2750    8.3020   94.0660 C.3   268  PRO268      0.0207
     59  CD        70.2210    7.7280   95.1120 C.3   268  PRO268      0.0892
     60  N         65.6810   13.2340   97.3820 N.3   270  VAL270     -0.1245
     61  CA        65.1650   14.6040   97.3700 C.3   270  VAL270      0.1561
     62  C         64.3620   14.8410   98.6550 C.2   270  VAL270      0.2260
     63  O         63.4660   14.0580   98.9750 O.2   270  VAL270     -0.2867
     64  CB        64.2650   14.8340   96.1300 C.3   270  VAL270      0.0252
     65  CG1       63.6340   16.2170   96.1640 C.3   270  VAL270      0.0019
     66  CG2       65.0830   14.6690   94.8660 C.3   270  VAL270      0.0019
     67  N         61.9200   11.5580   99.6810 N.3   287  PHE287     -0.1227
     68  CA        61.8040   10.3320   98.8900 C.3   287  PHE287      0.1736
     69  C         63.1110   10.0270   98.1680 C.2   287  PHE287      0.2595
     70  O         63.9280   10.9210   97.9360 O.2   287  PHE287     -0.2718
     71  CB        60.6620   10.4510   97.8680 C.3   287  PHE287      0.0547
     72  CG        60.7600   11.6620   96.9710 C.ar  287  PHE287     -0.0202
     73  CD1       60.2240   12.8830   97.3700 C.ar  287  PHE287     -0.0042
     74  CD2       61.3790   11.5820   95.7260 C.ar  287  PHE287     -0.0042
     75  CE1       60.2980   14.0080   96.5430 C.ar  287  PHE287     -0.0003
     76  CE2       61.4590   12.7000   94.8920 C.ar  287  PHE287     -0.0003
     77  CZ        60.9180   13.9150   95.3020 C.ar  287  PHE287     -0.0000
     78  N         63.2970    8.7680   97.7920 N.am  288  ASN288     -0.1960
     79  CA        64.5110    8.3830   97.0980 C.3   288  ASN288      0.1819
     80  C         64.2810    7.2360   96.1230 C.2   288  ASN288      0.2622
     81  O         63.2660    6.5370   96.1760 O.2   288  ASN288     -0.2715
     82  CB        65.5740    7.9570   98.1060 C.3   288  ASN288      0.1195
     83  CG        65.4390    6.5050   98.5030 C.2   288  ASN288      0.2630
     84  OD1       64.4720    6.1190   99.1540 O.2   288  ASN288     -0.2716
     85  ND2       66.3920    5.6810   98.0730 N.am  288  ASN288     -0.0877
     86  N         65.2760    7.0400   95.2640 N.am  289  GLY289     -0.1940
     87  CA        65.2700    5.9740   94.2780 C.3   289  GLY289      0.2014
     88  C         66.7380    5.6590   94.0770 C.2   289  GLY289      0.2639
     89  O         67.5390    5.9310   94.9740 O.2   289  GLY289     -0.2714
     90  N         67.1060    5.0450   92.9560 N.am  290  TRP290     -0.1959
     91  CA        68.5200    4.7740   92.6980 C.3   290  TRP290      0.1771
     92  C         69.0210    5.6870   91.5890 C.2   290  TRP290      0.2620
     93  O         68.2370    6.2460   90.8150 O.2   290  TRP290     -0.2715
     94  CB        68.7840    3.3030   92.3660 C.3   290  TRP290      0.0590
     95  CG        67.8660    2.7460   91.3580 C.ar  290  TRP290      0.0006
     96  CD1       67.9070    2.9410   90.0070 C.ar  290  TRP290      0.0946
     97  CD2       66.7500    1.8970   91.6110 C.ar  290  TRP290      0.0152
     98  NE1       66.8800    2.2640   89.4030 N.ar  290  TRP290     -0.2442
     99  CE2       66.1520    1.6110   90.3650 C.ar  290  TRP290      0.0810
    100  CE3       66.1930    1.3450   92.7750 C.ar  290  TRP290      0.0012
    101  CZ2       65.0250    0.7960   90.2440 C.ar  290  TRP290      0.0191
    102  CZ3       65.0740    0.5340   92.6580 C.ar  290  TRP290      0.0001
    103  CH2       64.5000    0.2680   91.3980 C.ar  290  TRP290      0.0015
    104  N         70.3320    5.8480   91.5310 N.am  291  TYR291     -0.1960
    105  CA        70.9430    6.7150   90.5420 C.3   291  TYR291      0.1771
    106  C         70.9520    6.2260   89.1030 C.2   291  TYR291      0.2619
    107  O         70.9610    5.0220   88.8330 O.2   291  TYR291     -0.2715
    108  CB        72.3810    7.0230   90.9560 C.3   291  TYR291      0.0574
    109  CG        72.5560    8.3510   91.6490 C.ar  291  TYR291     -0.0198
    110  CD1       72.0330    9.5170   91.0950 C.ar  291  TYR291     -0.0009
    111  CD2       73.2980    8.4550   92.8280 C.ar  291  TYR291     -0.0009
    112  CE1       72.2520   10.7540   91.6920 C.ar  291  TYR291      0.0417
    113  CE2       73.5230    9.6880   93.4300 C.ar  291  TYR291      0.0417
    114  CZ        73.0010   10.8320   92.8540 C.ar  291  TYR291      0.1957
    115  OH        73.2580   12.0600   93.4070 O.3   291  TYR291     -0.2866
    116  N         70.9120    7.1930   88.1890 N.am  292  MET292     -0.1977
    117  CA        71.0080    6.9380   86.7590 C.3   292  MET292      0.1605
    118  C         72.3600    7.5420   86.3940 C.2   292  MET292      0.2287
    119  O         72.5860    8.7280   86.6160 O.2   292  MET292     -0.2864
    120  CB        69.8970    7.6300   85.9640 C.3   292  MET292      0.0413
    121  CG        70.0810    7.4560   84.4480 C.3   292  MET292      0.0598
    122  SD        68.6900    7.9400   83.3930 S.3   292  MET292     -0.1393
    123  CE        69.0650    9.6490   83.0230 C.3   292  MET292      0.0692
    124  N         73.2270   11.2590   85.6290 N.3   295  GLU295     -0.1245
    125  CA        72.9860   12.1920   86.7200 C.3   295  GLU295      0.1567
    126  C         74.2900   12.5820   87.4150 C.2   295  GLU295      0.2260
    127  O         74.4840   13.7350   87.7950 O.2   295  GLU295     -0.2867
    128  CB        72.0350   11.5750   87.7490 C.3   295  GLU295      0.0388
    129  CG        70.6240   11.2800   87.2590 C.3   295  GLU295      0.1160
    130  CD        69.6950   10.8940   88.4030 C.2   295  GLU295      0.3649
    131  OE1       69.2280   11.8110   89.1110 O.co2 295  GLU295     -0.2457
    132  OE2       69.4410    9.6850   88.6030 O.co2 295  GLU295     -0.2457
    133  N         76.1060   15.3480   84.6920 N.3   299  ARG299     -0.1231
    134  CA        75.7160   16.5490   85.4230 C.3   299  ARG299      0.1694
    135  C         76.5600   16.9350   86.6360 C.2   299  ARG299      0.2592
    136  O         77.1490   18.0160   86.6710 O.2   299  ARG299     -0.2718
    137  CB        74.2340   16.4760   85.8160 C.3   299  ARG299      0.0321
    138  CG        73.2670   16.2540   84.6470 C.3   299  ARG299      0.0489
    139  CD        73.4750   17.2580   83.5090 C.3   299  ARG299      0.2205
    140  NE        73.2870   18.6460   83.9250 N.pl3 299  ARG299     -0.0865
    141  CZ        72.1150   19.1800   84.2580 C.cat 299  ARG299      0.5346
    142  NH1       71.0090   18.4470   84.2270 N.pl3 299  ARG299      0.1354
    143  NH2       72.0480   20.4470   84.6360 N.pl3 299  ARG299      0.1354
    144  N         76.6050   16.0670   87.6380 N.am  300  ASP300     -0.1974
    145  CA        77.3620   16.3580   88.8470 C.3   300  ASP300      0.1709
    146  C         78.8600   16.5860   88.5870 C.2   300  ASP300      0.2293
    147  O         79.4480   17.5120   89.1470 O.2   300  ASP300     -0.2864
    148  CB        77.1540   15.2430   89.8830 C.3   300  ASP300      0.1436
    149  CG        75.6780   15.0000   90.2210 C.2   300  ASP300      0.3671
    150  OD1       74.8590   15.9500   90.2140 O.co2 300  ASP300     -0.2456
    151  OD2       75.3370   13.8360   90.5130 O.co2 300  ASP300     -0.2456
    152  N         78.9840   22.9460   88.5220 N.3   306  ARG306     -0.1245
    153  CA        79.1770   21.8400   89.4680 C.3   306  ARG306      0.1563
    154  C         80.6710   21.4900   89.5870 C.2   306  ARG306      0.2260
    155  O         81.5120   22.3920   89.5760 O.2   306  ARG306     -0.2867
    156  CB        78.3600   20.6110   89.0590 C.3   306  ARG306      0.0307
    157  CG        76.8510   20.8420   88.9750 C.3   306  ARG306      0.0489
    158  CD        76.2300   21.2290   90.3070 C.3   306  ARG306      0.2205
    159  NE        76.1800   20.1250   91.2650 N.pl3 306  ARG306     -0.0865
    160  CZ        75.2540   19.1660   91.2780 C.cat 306  ARG306      0.5346
    161  NH1       74.2790   19.1500   90.3770 N.pl3 306  ARG306      0.1354
    162  NH2       75.2900   18.2280   92.2160 N.pl3 306  ARG306      0.1354
@<TRIPOS>BOND
     1   123   122    1
     2   122   121    1
     3   139   140    1
     4   139   138    1
     5   140   141    2
     6   142   141    1
     7   141   143    1
     8   121   120    1
     9   138   137    1
    10   133   134    1
    11     4     3    2
    12     3     2    1
    13   134   137    1
    14   134   135    1
    15   124   125    1
    16   120   117    1
    17     1     2    1
    18   118   119    2
    19   118   117    1
    20     2     5    1
    21   135   136    2
    22   135   144   am
    23   125   126    1
    24   125   128    1
    25   117   116    1
    26   129   128    1
    27   129   130    1
    28   126   127    2
    29     5     6    1
    30   144   145    1
    31   116   106   am
    32   130   132   ar
    33   130   131   ar
    34   152   153    1
    35   146   145    1
    36   146   147    2
    37   107   106    2
    38   145   148    1
    39   157   156    1
    40   157   158    1
    41   156   153    1
    42   106   105    1
    43    98    96   ar
    44    98    99   ar
    45   153   154    1
    46   155   154    2
    47   148   149    1
    48    96    95   ar
    49   150   149   ar
    50   149   151   ar
    51   101    99   ar
    52   101   103   ar
    53   158   159    1
    54    99    97   ar
    55   161   160    1
    56   105   108    1
    57   105   104    1
    58    93    92    2
    59   108   109    1
    60   110   109   ar
    61   110   112   ar
    62   159   160    2
    63   160   162    1
    64    95    97   ar
    65    95    94    1
    66   103   102   ar
    67   104    92   am
    68    92    91    1
    69    97   100   ar
    70   109   111   ar
    71   112   114   ar
    72    94    91    1
    73   102   100   ar
    74    91    90    1
    75   111   113   ar
    76   114   115    1
    77   114   113   ar
    78    90    88   am
    79    39    37   ar
    80    39    40   ar
    81    37    34   ar
    82    40    38   ar
    83    34    36   ar
    84    34    32   ar
    85    38    36   ar
    86    36    35   ar
    87    32    33   ar
    88    32    31    1
    89    35    33   ar
    90    31    28    1
    91    26    24    1
    92    58    57    1
    93    58    59    1
    94    88    87    1
    95    88    89    2
    96    57    54    1
    97    87    86    1
    98    27    28    1
    99    66    64    1
   100    14    13    2
   101    76    77   ar
   102    76    74   ar
   103    28    29    1
   104    59    53    1
   105    86    80   am
   106    24    25    1
   107    24    23    2
   108    77    75   ar
   109    44    43    2
   110    54    53    1
   111    54    55    1
   112    74    72   ar
   113    56    55    2
   114    29    30    2
   115    29    41   am
   116    52    51    1
   117    13    15   am
   118    13    12    1
   119    23    22    1
   120    80    81    2
   121    80    79    1
   122    64    65    1
   123    64    61    1
   124    51    49   ar
   125    51    50   ar
   126    41    42    1
   127    43    42    1
   128    75    73   ar
   129    49    47   ar
   130    50    48   ar
   131    12    11    1
   132    72    73   ar
   133    72    71    1
   134    79    78    1
   135    79    82    1
   136    47    46   ar
   137    42    45    1
   138    61    60    1
   139    61    62    1
   140    22    21    1
   141    48    46   ar
   142    46    45    1
   143    78    69   am
   144    21    20    1
   145    71    68    1
   146    70    69    2
   147    85    83   am
   148    82    83    1
   149    69    68    1
   150    11     8    1
   151    83    84    2
   152    62    63    2
   153    68    67    1
   154    20    17    1
   155     7     8    1
   156     8     9    1
   157    17    18    1
   158    17    16    1
   159    18    19    2
   160     9    10    2
