@<TRIPOS>MOLECULE
tmp/1nstA00.pdb
 193 186 0 0 0
SMALL
GASTEIGER

@<TRIPOS>ATOM
      1  N        -37.7340  -16.6220   50.4850 N.3    21  GLN21      -0.1231
      2  CA       -37.4200  -15.2640   50.0550 C.3    21  GLN21       0.1698
      3  C        -37.7630  -14.2040   51.0740 C.2    21  GLN21       0.2592
      4  O        -38.6960  -14.3550   51.8590 O.2    21  GLN21      -0.2718
      5  CB       -38.1370  -14.9450   48.7450 C.3    21  GLN21       0.0381
      6  CG       -37.9300  -16.0110   47.7080 C.3    21  GLN21       0.0905
      7  CD       -38.6920  -15.7460   46.4410 C.2    21  GLN21       0.2608
      8  OE1      -39.9070  -15.9270   46.3900 O.2    21  GLN21      -0.2717
      9  NE2      -37.9860  -15.3160   45.4040 N.am   21  GLN21      -0.0878
     10  N        -36.9850  -13.1290   51.0520 N.am   22  LYS22      -0.1966
     11  CA       -37.1910  -12.0010   51.9460 C.3    22  LYS22       0.1728
     12  C        -36.9570  -12.3200   53.4210 C.2    22  LYS22       0.2617
     13  O        -37.5980  -11.7380   54.2900 O.2    22  LYS22      -0.2715
     14  CB       -38.6010  -11.4410   51.7350 C.3    22  LYS22       0.0311
     15  CG       -39.0800  -11.4870   50.2740 C.3    22  LYS22       0.0038
     16  CD       -38.0740  -10.8450   49.3180 C.3    22  LYS22       0.0206
     17  CE       -37.7750   -9.4100   49.7390 C.3    22  LYS22       0.1093
     18  NZ       -36.6090   -8.8350   49.0190 N.3    22  LYS22      -0.1314
     19  N        -36.0260  -13.2290   53.6980 N.am   23  THR23      -0.1937
     20  CA       -35.7110  -13.6140   55.0700 C.3    23  THR23       0.2028
     21  C        -34.2830  -13.1800   55.4370 C.2    23  THR23       0.2643
     22  O        -33.8440  -13.3410   56.5850 O.2    23  THR23      -0.2714
     23  CB       -35.8370  -15.1640   55.2750 C.3    23  THR23       0.1808
     24  OG1      -35.0610  -15.8510   54.2840 O.3    23  THR23      -0.2208
     25  CG2      -37.3040  -15.6160   55.1630 C.3    23  THR23       0.0379
     26  N        -33.5640  -12.6190   54.4640 N.am   24  GLY24      -0.1939
     27  CA       -32.1930  -12.1850   54.7060 C.3    24  GLY24       0.2014
     28  C        -31.1790  -13.1440   54.1030 C.2    24  GLY24       0.2640
     29  O        -30.0560  -13.2570   54.5870 O.2    24  GLY24      -0.2714
     30  N        -31.5780  -13.8300   53.0350 N.am   25  THR25      -0.1936
     31  CA       -30.7110  -14.7940   52.3690 C.3    25  THR25       0.2028
     32  C        -29.4870  -14.1740   51.7030 C.2    25  THR25       0.2643
     33  O        -28.3910  -14.7550   51.7490 O.2    25  THR25      -0.2714
     34  CB       -31.4860  -15.6100   51.3000 C.3    25  THR25       0.1808
     35  OG1      -32.1000  -14.7200   50.3620 O.3    25  THR25      -0.2208
     36  CG2      -32.5570  -16.4730   51.9580 C.3    25  THR25       0.0379
     37  N        -29.6630  -13.0060   51.0850 N.am   26  THR26      -0.1936
     38  CA       -28.5530  -12.3400   50.4050 C.3    26  THR26       0.2028
     39  C        -27.4790  -11.8960   51.3940 C.2    26  THR26       0.2642
     40  O        -26.2860  -11.9140   51.0810 O.2    26  THR26      -0.2714
     41  CB       -29.0270  -11.1030   49.6050 C.3    26  THR26       0.1808
     42  OG1      -29.9520  -11.5050   48.5890 O.3    26  THR26      -0.2208
     43  CG2      -27.8360  -10.4260   48.9270 C.3    26  THR26       0.0379
     44  N        -27.9120  -11.4950   52.5850 N.am   27  ALA27      -0.1977
     45  CA       -26.9930  -11.0550   53.6280 C.3    27  ALA27       0.1597
     46  C        -26.1910  -12.2440   54.1720 C.2    27  ALA27       0.2287
     47  O        -24.9800  -12.1440   54.3860 O.2    27  ALA27      -0.2864
     48  CB       -27.7690  -10.3760   54.7530 C.3    27  ALA27       0.0319
     49  N        -22.1850  -12.3950   53.7670 N.3    31  PHE31      -0.1241
     50  CA       -21.3180  -12.5280   54.9350 C.3    31  PHE31       0.1605
     51  C        -20.5310  -13.8360   54.9200 C.2    31  PHE31       0.2264
     52  O        -19.3630  -13.8660   55.2890 O.2    31  PHE31      -0.2867
     53  CB       -22.1480  -12.4510   56.2140 C.3    31  PHE31       0.0534
     54  CG       -22.8720  -11.1390   56.4000 C.ar   31  PHE31      -0.0203
     55  CD1      -22.5020  -10.0020   55.6740 C.ar   31  PHE31      -0.0042
     56  CD2      -23.9140  -11.0340   57.3250 C.ar   31  PHE31      -0.0042
     57  CE1      -23.1540   -8.7750   55.8640 C.ar   31  PHE31      -0.0003
     58  CE2      -24.5730   -9.8190   57.5270 C.ar   31  PHE31      -0.0003
     59  CZ       -24.1910   -8.6840   56.7930 C.ar   31  PHE31      -0.0000
     60  N        -27.0970  -20.1280   46.8390 N.3    79  LYS79      -0.1245
     61  CA       -28.3270  -19.7150   47.4930 C.3    79  LYS79       0.1561
     62  C        -29.4340  -19.4770   46.4720 C.2    79  LYS79       0.2260
     63  O        -29.2490  -18.7480   45.5090 O.2    79  LYS79      -0.2867
     64  CB       -28.0830  -18.4490   48.3160 C.3    79  LYS79       0.0271
     65  CG       -29.3390  -17.8060   48.8770 C.3    79  LYS79       0.0035
     66  CD       -29.3840  -16.3370   48.5290 C.3    79  LYS79       0.0206
     67  CE       -30.7130  -15.9600   47.9100 C.3    79  LYS79       0.1093
     68  NZ       -30.7230  -14.5450   47.4660 N.3    79  LYS79      -0.1314
     69  N        -33.4880  -18.8780   47.1060 N.3    81  ALA81      -0.1245
     70  CA       -34.6490  -18.7840   47.9930 C.3    81  ALA81       0.1562
     71  C        -35.9030  -19.4820   47.4680 C.2    81  ALA81       0.2260
     72  O        -36.9260  -19.5560   48.1480 O.2    81  ALA81      -0.2867
     73  CB       -34.9430  -17.3170   48.2860 C.3    81  ALA81       0.0290
     74  N        -42.8720   -8.0770   53.3370 N.3   115  SER115     -0.1217
     75  CA       -41.6680   -7.7760   52.5810 C.3   115  SER115      0.1889
     76  C        -41.8160   -8.2140   51.1280 C.2   115  SER115      0.2288
     77  O        -41.3050   -7.5550   50.2160 O.2   115  SER115     -0.2866
     78  CB       -40.4580   -8.4710   53.2210 C.3   115  SER115      0.2089
     79  OG       -39.2800   -8.2400   52.4700 O.3   115  SER115     -0.2183
     80  N        -34.1510  -15.5870   61.4420 N.3   181  GLY181     -0.1225
     81  CA       -34.0310  -14.4330   60.5720 C.3   181  GLY181      0.1811
     82  C        -33.9200  -13.1140   61.3150 C.2   181  GLY181      0.2280
     83  O        -33.2500  -12.1800   60.8480 O.2   181  GLY181     -0.2866
     84  N        -30.4020  -12.7840   62.6480 N.3   184  LEU184     -0.1231
     85  CA       -29.4590  -12.5280   61.5700 C.3   184  LEU184      0.1693
     86  C        -29.3940  -11.0410   61.2530 C.2   184  LEU184      0.2591
     87  O        -28.3250  -10.4920   60.9660 O.2   184  LEU184     -0.2718
     88  CB       -29.8700  -13.2860   60.3050 C.3   184  LEU184      0.0284
     89  CG       -29.1280  -12.8880   59.0270 C.3   184  LEU184      0.0019
     90  CD1      -27.6520  -13.2540   59.1540 C.3   184  LEU184      0.0001
     91  CD2      -29.7480  -13.5980   57.8370 C.3   184  LEU184      0.0001
     92  N        -30.5490  -10.3920   61.3000 N.am  185  ARG185     -0.1980
     93  CA       -30.6350   -8.9750   60.9970 C.3   185  ARG185      0.1597
     94  C        -30.2440   -8.1050   62.1860 C.2   185  ARG185      0.2287
     95  O        -29.6400   -7.0450   62.0300 O.2   185  ARG185     -0.2864
     96  CB       -32.0600   -8.6570   60.5480 C.3   185  ARG185      0.0334
     97  CG       -32.3610   -7.1920   60.3690 C.3   185  ARG185      0.0492
     98  CD       -33.8460   -6.9560   60.5250 C.3   185  ARG185      0.2205
     99  NE       -34.1080   -5.9920   61.5860 N.pl3 185  ARG185     -0.0865
    100  CZ       -34.9320   -6.1990   62.6050 C.cat 185  ARG185      0.5346
    101  NH1      -35.5890   -7.3420   62.7130 N.pl3 185  ARG185      0.1354
    102  NH2      -35.0880   -5.2580   63.5250 N.pl3 185  ARG185      0.1354
    103  N        -26.1150  -10.3140   63.4640 N.3   188  PRO188     -0.2116
    104  CA       -25.5070  -11.2020   62.4680 C.3   188  PRO188      0.1372
    105  C        -24.3110  -12.0380   62.9100 C.2   188  PRO188      0.2244
    106  O        -24.1490  -13.1760   62.4620 O.2   188  PRO188     -0.2868
    107  CB       -25.1390  -10.2600   61.3170 C.3   188  PRO188      0.0268
    108  CG       -25.2170   -8.8710   61.8970 C.3   188  PRO188      0.0207
    109  CD       -26.2890   -8.9540   62.9330 C.3   188  PRO188      0.0892
    110  N        -28.2200    3.1320   57.2180 N.3   217  LYS217     -0.1245
    111  CA       -28.6790    1.9870   56.4350 C.3   217  LYS217      0.1561
    112  C        -29.7850    1.2440   57.1900 C.2   217  LYS217      0.2260
    113  O        -30.6960    0.6850   56.5790 O.2   217  LYS217     -0.2867
    114  CB       -27.5040    1.0420   56.1430 C.3   217  LYS217      0.0271
    115  CG       -27.8860   -0.2750   55.4840 C.3   217  LYS217      0.0035
    116  CD       -28.3760   -0.0770   54.0630 C.3   217  LYS217      0.0206
    117  CE       -29.1740   -1.2830   53.5970 C.3   217  LYS217      0.1093
    118  NZ       -29.2940   -1.3610   52.1030 N.3   217  LYS217     -0.1314
    119  N        -29.2250   -1.3170   59.0420 N.3   219  PHE219     -0.1227
    120  CA       -28.8390   -2.7180   59.0720 C.3   219  PHE219      0.1736
    121  C        -27.3500   -2.8310   59.2970 C.2   219  PHE219      0.2595
    122  O        -26.6410   -1.8310   59.3220 O.2   219  PHE219     -0.2718
    123  CB       -29.1600   -3.3950   57.7430 C.3   219  PHE219      0.0547
    124  CG       -30.6210   -3.4570   57.4200 C.ar  219  PHE219     -0.0202
    125  CD1      -31.2150   -2.4690   56.6390 C.ar  219  PHE219     -0.0042
    126  CD2      -31.4020   -4.5260   57.8610 C.ar  219  PHE219     -0.0042
    127  CE1      -32.5660   -2.5470   56.3030 C.ar  219  PHE219     -0.0003
    128  CE2      -32.7540   -4.6140   57.5280 C.ar  219  PHE219     -0.0003
    129  CZ       -33.3370   -3.6250   56.7480 C.ar  219  PHE219     -0.0000
    130  N        -26.8870   -4.0690   59.4410 N.am  220  TRP220     -0.1976
    131  CA       -25.4720   -4.3490   59.6220 C.3   220  TRP220      0.1640
    132  C        -24.8190   -4.3800   58.2460 C.2   220  TRP220      0.2290
    133  O        -25.4660   -4.6430   57.2310 O.2   220  TRP220     -0.2864
    134  CB       -25.2850   -5.6950   60.3140 C.3   220  TRP220      0.0576
    135  CG       -25.4470   -5.6090   61.7960 C.ar  220  TRP220      0.0006
    136  CD1      -26.6200   -5.5030   62.4920 C.ar  220  TRP220      0.0946
    137  CD2      -24.3970   -5.5720   62.7680 C.ar  220  TRP220      0.0152
    138  NE1      -26.3610   -5.3980   63.8380 N.ar  220  TRP220     -0.2442
    139  CE2      -25.0050   -5.4350   64.0350 C.ar  220  TRP220      0.0810
    140  CE3      -22.9980   -5.6380   62.6920 C.ar  220  TRP220      0.0012
    141  CZ2      -24.2660   -5.3620   65.2150 C.ar  220  TRP220      0.0191
    142  CZ3      -22.2610   -5.5650   63.8680 C.ar  220  TRP220      0.0001
    143  CH2      -22.8990   -5.4280   65.1130 C.ar  220  TRP220      0.0015
    144  N        -25.4810   -3.7810   51.8800 N.3   232  LEU232     -0.1245
    145  CA       -26.1760   -4.4840   50.8090 C.3   232  LEU232      0.1561
    146  C        -26.8130   -3.4040   49.9330 C.2   232  LEU232      0.2260
    147  O        -27.0060   -2.2780   50.3870 O.2   232  LEU232     -0.2867
    148  CB       -27.2670   -5.4000   51.3770 C.3   232  LEU232      0.0270
    149  CG       -27.0000   -6.5330   52.3830 C.3   232  LEU232      0.0019
    150  CD1      -27.7410   -7.7650   51.9080 C.3   232  LEU232      0.0001
    151  CD2      -25.5250   -6.8360   52.5400 C.3   232  LEU232      0.0001
    152  N        -31.9720   -2.4180   47.0320 N.3   235  SER235     -0.1202
    153  CA       -33.1220   -3.3200   46.9790 C.3   235  SER235      0.2020
    154  C        -33.1460   -4.2660   48.1710 C.2   235  SER235      0.2619
    155  O        -34.0250   -5.1220   48.2890 O.2   235  SER235     -0.2717
    156  CB       -33.1180   -4.1240   45.6820 C.3   235  SER235      0.2103
    157  OG       -32.2000   -5.1950   45.7670 O.3   235  SER235     -0.2182
    158  N        -32.1680   -4.1140   49.0520 N.am  236  LYS236     -0.1965
    159  CA       -32.0820   -4.9510   50.2420 C.3   236  LYS236      0.1728
    160  C        -32.2110   -4.0360   51.4400 C.2   236  LYS236      0.2617
    161  O        -31.3240   -3.2190   51.7070 O.2   236  LYS236     -0.2715
    162  CB       -30.7480   -5.6910   50.2830 C.3   236  LYS236      0.0311
    163  CG       -30.5800   -6.6990   49.1650 C.3   236  LYS236      0.0038
    164  CD       -31.6900   -7.7330   49.1950 C.3   236  LYS236      0.0206
    165  CE       -31.5630   -8.6960   48.0330 C.3   236  LYS236      0.1093
    166  NZ       -32.7960   -9.5180   47.8870 N.3   236  LYS236     -0.1314
    167  N        -33.3190   -4.1770   52.1590 N.am  237  GLY237     -0.1940
    168  CA       -33.5690   -3.3240   53.3010 C.3   237  GLY237      0.2014
    169  C        -34.3090   -2.0880   52.8110 C.2   237  GLY237      0.2638
    170  O        -33.9520   -0.9610   53.1490 O.2   237  GLY237     -0.2714
    171  N        -35.3400   -2.3040   51.9990 N.am  238  ARG238     -0.1977
    172  CA       -36.1380   -1.2090   51.4510 C.3   238  ARG238      0.1597
    173  C        -36.8310   -0.3550   52.5170 C.2   238  ARG238      0.2287
    174  O        -37.2710   -0.8590   53.5610 O.2   238  ARG238     -0.2864
    175  CB       -37.1860   -1.7590   50.4870 C.3   238  ARG238      0.0334
    176  CG       -36.5960   -2.3840   49.2310 C.3   238  ARG238      0.0492
    177  CD       -37.6940   -2.8380   48.2890 C.3   238  ARG238      0.2205
    178  NE       -37.1670   -3.2770   46.9850 N.pl3 238  ARG238     -0.0865
    179  CZ       -37.0340   -4.5430   46.6180 C.cat 238  ARG238      0.5346
    180  NH1      -37.3890   -5.5020   47.4530 N.pl3 238  ARG238      0.1354
    181  NH2      -36.5640   -4.8540   45.4170 N.pl3 238  ARG238      0.1354
    182  N        -39.8770    1.4480   53.6540 N.3   240  TYR240     -0.1241
    183  CA       -41.3300    1.5040   53.5360 C.3   240  TYR240      0.1605
    184  C        -42.0200    1.6280   54.9040 C.2   240  TYR240      0.2264
    185  O        -41.3970    1.4340   55.9560 O.2   240  TYR240     -0.2867
    186  CB       -41.8580    0.2740   52.7710 C.3   240  TYR240      0.0534
    187  CG       -41.3680   -1.0780   53.2440 C.ar  240  TYR240     -0.0201
    188  CD1      -40.4170   -1.7890   52.5120 C.ar  240  TYR240     -0.0009
    189  CD2      -41.8860   -1.6680   54.3990 C.ar  240  TYR240     -0.0009
    190  CE1      -39.9950   -3.0590   52.9170 C.ar  240  TYR240      0.0417
    191  CE2      -41.4740   -2.9330   54.8170 C.ar  240  TYR240      0.0417
    192  CZ       -40.5340   -3.6200   54.0690 C.ar  240  TYR240      0.1957
    193  OH       -40.1270   -4.8770   54.4640 O.3   240  TYR240     -0.2866
@<TRIPOS>BOND
     1     9     7   am
     2   181   179    1
     3    63    62    2
     4   156   157    1
     5   156   153    1
     6     8     7    2
     7     7     6    1
     8    62    61    1
     9   179   178    2
    10   179   180    1
    11    60    61    1
    12   153   152    1
    13   153   154    1
    14   178   177    1
    15    69    70    1
    16    68    67    1
    17    71    70    1
    18    71    72    2
    19    61    64    1
    20     6     5    1
    21   166   165    1
    22    67    66    1
    23    70    73    1
    24   165   164    1
    25   154   155    2
    26   154   158   am
    27   177   176    1
    28    64    65    1
    29    66    65    1
    30    42    41    1
    31     5     2    1
    32    43    41    1
    33    18    17    1
    34   158   159    1
    35   163   164    1
    36   163   162    1
    37   176   175    1
    38    16    17    1
    39    16    15    1
    40    41    38    1
    41   146   147    2
    42   146   145    1
    43     2     1    1
    44     2     3    1
    45    77    76    2
    46   159   162    1
    47   159   160    1
    48    15    14    1
    49    35    34    1
    50    38    37    1
    51    38    39    1
    52   175   172    1
    53   145   148    1
    54   145   144    1
    55    10     3   am
    56    10    11    1
    57     3     4    2
    58    40    39    2
    59    37    32   am
    60    76    75    1
    61    34    36    1
    62    34    31    1
    63   148   149    1
    64    39    44   am
    65   160   161    2
    66   160   167   am
    67   172   171    1
    68   172   173    1
    69    32    33    2
    70    32    31    1
    71    14    11    1
    72   150   149    1
    73    11    12    1
    74   171   169   am
    75   118   117    1
    76   167   168    1
    77    31    30    1
    78   149   151    1
    79    79    78    1
    80   188   190   ar
    81   188   187   ar
    82   173   174    2
    83    75    78    1
    84    75    74    1
    85    44    45    1
    86   186   187    1
    87   186   183    1
    88   169   170    2
    89   169   168    1
    90   190   192   ar
    91    30    28   am
    92   187   189   ar
    93    12    19   am
    94    12    13    2
    95   183   182    1
    96   183   184    1
    97   117   116    1
    98    45    46    1
    99    45    48    1
   100    19    20    1
   101    49    50    1
   102   116   115    1
   103   192   193    1
   104   192   191   ar
   105    28    29    2
   106    28    27    1
   107    46    47    2
   108    24    23    1
   109   189   191   ar
   110    26    27    1
   111    26    21   am
   112   184   185    2
   113    51    50    1
   114    51    52    2
   115    50    53    1
   116    20    23    1
   117    20    21    1
   118    25    23    1
   119    21    22    2
   120   115   114    1
   121    55    57   ar
   122    55    54   ar
   123    57    59   ar
   124   114   111    1
   125    53    54    1
   126   127   125   ar
   127   127   129   ar
   128    54    56   ar
   129   111   112    1
   130   111   110    1
   131   113   112    2
   132   125   124   ar
   133   129   128   ar
   134    59    58   ar
   135   133   132    2
   136    56    58   ar
   137   124   123    1
   138   124   126   ar
   139   128   126   ar
   140   123   120    1
   141    91    89    1
   142   132   131    1
   143    89    90    1
   144    89    88    1
   145   119   120    1
   146   120   121    1
   147   121   122    2
   148   121   130   am
   149   130   131    1
   150   131   134    1
   151    88    85    1
   152   134   135    1
   153    97    98    1
   154    97    96    1
   155    98    99    1
   156    96    93    1
   157    81    82    1
   158    81    80    1
   159    83    82    2
   160    87    86    2
   161    93    92    1
   162    93    94    1
   163    86    92   am
   164    86    85    1
   165   107   108    1
   166   107   104    1
   167    85    84    1
   168    99   100    2
   169   135   136   ar
   170   135   137   ar
   171   108   109    1
   172    95    94    2
   173   106   105    2
   174   104   105    1
   175   104   103    1
   176   136   138   ar
   177   100   101    1
   178   100   102    1
   179   140   137   ar
   180   140   142   ar
   181   137   139   ar
   182   109   103    1
   183   138   139   ar
   184   142   143   ar
   185   139   141   ar
   186   143   141   ar
