@<TRIPOS>MOLECULE
tmp/1nsvB00.pdb
 137 129 0 0 0
SMALL
GASTEIGER

@<TRIPOS>ATOM
      1  N         26.9490   16.1380   36.9490 N.3    57  ASP57      -0.1239
      2  CA        25.9950   15.0860   36.6720 C.3    57  ASP57       0.1674
      3  C         24.6820   15.7500   36.6100 C.2    57  ASP57       0.2266
      4  O         24.2490   16.3690   37.5790 O.2    57  ASP57      -0.2867
      5  CB        26.0210   13.9800   37.7450 C.3    57  ASP57       0.1410
      6  CG        24.9310   12.9790   37.5630 C.2    57  ASP57       0.3668
      7  OD1       24.1870   12.9470   36.6010 O.co2  57  ASP57      -0.2456
      8  OD2       24.9100   12.1110   38.5310 O.co2  57  ASP57      -0.2456
      9  N         21.6350   14.3990   36.2520 N.3    59  TYR59      -0.1241
     10  CA        20.4460   13.6840   36.6970 C.3    59  TYR59       0.1605
     11  C         19.9480   13.9260   38.0880 C.2    59  TYR59       0.2264
     12  O         18.7490   13.9290   38.3530 O.2    59  TYR59      -0.2867
     13  CB        20.6050   12.1710   36.5350 C.3    59  TYR59       0.0534
     14  CG        20.6170   11.7360   35.0870 C.ar   59  TYR59      -0.0201
     15  CD1       21.7360   11.0900   34.5620 C.ar   59  TYR59      -0.0009
     16  CD2       19.5340   11.9890   34.2350 C.ar   59  TYR59      -0.0009
     17  CE1       21.7240   10.6420   33.2390 C.ar   59  TYR59       0.0417
     18  CE2       19.5380   11.6060   32.8930 C.ar   59  TYR59       0.0417
     19  CZ        20.6530   10.9240   32.3990 C.ar   59  TYR59       0.1957
     20  OH        20.7010   10.4810   31.0970 O.3    59  TYR59      -0.2866
     21  N         14.3780    5.4210   32.3030 N.3    69  GLY69      -0.1210
     22  CA        15.0140    4.1290   32.1790 C.3    69  GLY69       0.1956
     23  C         15.5050    3.8800   30.7800 C.2    69  GLY69       0.2611
     24  O         15.5710    4.7820   29.9770 O.2    69  GLY69      -0.2717
     25  N         15.8520    2.6310   30.5110 N.am   70  ARG70      -0.1979
     26  CA        16.3340    2.1680   29.2100 C.3    70  ARG70       0.1597
     27  C         15.2690    1.5160   28.3520 C.2    70  ARG70       0.2287
     28  O         14.4140    0.7820   28.8450 O.2    70  ARG70      -0.2864
     29  CB        17.4510    1.1370   29.3630 C.3    70  ARG70       0.0334
     30  CG        18.6050    1.7330   30.1580 C.3    70  ARG70       0.0492
     31  CD        19.6470    0.7200   30.5770 C.3    70  ARG70       0.2205
     32  NE        20.7710    1.4600   31.0780 N.pl3  70  ARG70      -0.0865
     33  CZ        20.9310    1.9070   32.3050 C.cat  70  ARG70       0.5346
     34  NH1       20.0530    1.7070   33.2500 N.pl3  70  ARG70       0.1354
     35  NH2       22.0230    2.5990   32.5710 N.pl3  70  ARG70       0.1354
     36  N         22.7540    5.5650   24.8810 N.3    89  GLU89      -0.1245
     37  CA        23.5130    4.6570   25.7220 C.3    89  GLU89       0.1567
     38  C         23.6860    3.4460   24.8590 C.2    89  GLU89       0.2260
     39  O         22.8600    2.5360   24.8480 O.2    89  GLU89      -0.2867
     40  CB        22.8360    4.3460   27.0320 C.3    89  GLU89       0.0388
     41  CG        23.8460    3.5970   27.9210 C.3    89  GLU89       0.1160
     42  CD        23.1690    2.8780   29.0630 C.2    89  GLU89       0.3649
     43  OE1       22.3700    1.9690   28.9440 O.co2  89  GLU89      -0.2457
     44  OE2       23.5500    3.3650   30.1910 O.co2  89  GLU89      -0.2457
     45  N         18.3070    5.9370   26.9480 N.3    94  LEU94      -0.1231
     46  CA        18.2760    6.0370   28.3980 C.3    94  LEU94       0.1693
     47  C         17.7120    7.4040   28.7890 C.2    94  LEU94       0.2592
     48  O         18.1700    8.4230   28.2590 O.2    94  LEU94      -0.2718
     49  CB        19.7440    5.9410   28.9030 C.3    94  LEU94       0.0284
     50  CG        20.0020    6.3730   30.3450 C.3    94  LEU94       0.0019
     51  CD1       19.4980    5.2950   31.2970 C.3    94  LEU94       0.0001
     52  CD2       21.4940    6.4880   30.5490 C.3    94  LEU94       0.0001
     53  N         16.7200    7.4160   29.7190 N.am   95  ASN95      -0.1974
     54  CA        16.1080    8.6330   30.2320 C.3    95  ASN95       0.1688
     55  C         15.7710    9.6720   29.1810 C.2    95  ASN95       0.2292
     56  O         16.0880   10.8460   29.3470 O.2    95  ASN95      -0.2864
     57  CB        16.9670    9.2480   31.3290 C.3    95  ASN95       0.1181
     58  CG        17.1710    8.3250   32.5200 C.2    95  ASN95       0.2629
     59  OD1       16.3130    7.4680   32.8340 O.2    95  ASN95      -0.2716
     60  ND2       18.2940    8.4980   33.1990 N.am   95  ASN95      -0.0877
     61  N         14.2880   11.9410   39.8880 N.3   169  HIS169     -0.1241
     62  CA        15.5770   11.3290   40.1410 C.3   169  HIS169      0.1621
     63  C         16.3160   11.7940   41.3850 C.2   169  HIS169      0.2264
     64  O         17.5190   11.8220   41.4390 O.2   169  HIS169     -0.2867
     65  CB        16.4030   11.5570   38.8720 C.3   169  HIS169      0.0745
     66  CG        17.4060   10.4780   38.6170 C.ar  169  HIS169      0.0817
     67  ND1       18.4730   10.2820   39.4710 N.ar  169  HIS169     -0.2268
     68  CD2       17.5050    9.5920   37.5680 C.ar  169  HIS169      0.1154
     69  CE1       19.1880    9.2750   38.9520 C.ar  169  HIS169      0.1986
     70  NE2       18.6320    8.8460   37.7960 N.ar  169  HIS169     -0.2212
     71  N         18.0910   11.6690   44.8800 N.3   171  TYR171     -0.1241
     72  CA        18.9480   10.7520   45.6020 C.3   171  TYR171      0.1605
     73  C         18.9390   11.1310   47.0600 C.2   171  TYR171      0.2264
     74  O         19.2090   12.2710   47.4300 O.2   171  TYR171     -0.2867
     75  CB        20.4070   10.9120   45.1750 C.3   171  TYR171      0.0534
     76  CG        20.8490   10.3070   43.8520 C.ar  171  TYR171     -0.0201
     77  CD1       20.8860   11.0750   42.6740 C.ar  171  TYR171     -0.0009
     78  CD2       21.3030    8.9810   43.8080 C.ar  171  TYR171     -0.0009
     79  CE1       21.3450   10.5190   41.4740 C.ar  171  TYR171      0.0417
     80  CE2       21.7860    8.4170   42.6210 C.ar  171  TYR171      0.0417
     81  CZ        21.7860    9.1870   41.4510 C.ar  171  TYR171      0.1957
     82  OH        22.2570    8.6300   40.2780 O.3   171  TYR171     -0.2866
     83  N         22.4340   -3.5790   30.8930 N.3   202  GLU202     -0.1245
     84  CA        21.3000   -3.2150   31.7310 C.3   202  GLU202      0.1567
     85  C         19.9090   -3.2450   31.1420 C.2   202  GLU202      0.2260
     86  O         18.9940   -2.7030   31.7630 O.2   202  GLU202     -0.2867
     87  CB        21.5500   -1.9080   32.5410 C.3   202  GLU202      0.0388
     88  CG        22.6660   -2.1210   33.5910 C.3   202  GLU202      0.1160
     89  CD        23.6710   -1.0230   33.9340 C.2   202  GLU202      0.3649
     90  OE1       24.7910   -0.9810   33.4450 O.co2 202  GLU202     -0.2457
     91  OE2       23.3290   -0.2390   34.9140 O.co2 202  GLU202     -0.2457
     92  N         20.1880   -1.5280   41.1600 N.3   242  ASP242     -0.1239
     93  CA        19.9140   -0.6900   40.0200 C.3   242  ASP242      0.1674
     94  C         18.7820   -1.4130   39.2970 C.2   242  ASP242      0.2266
     95  O         18.9110   -1.7690   38.1330 O.2   242  ASP242     -0.2867
     96  CB        21.1390   -0.7070   39.0980 C.3   242  ASP242      0.1410
     97  CG        21.1010    0.4240   38.1170 C.2   242  ASP242      0.3668
     98  OD1       20.1360    1.1540   37.9600 O.co2 242  ASP242     -0.2456
     99  OD2       22.2450    0.5630   37.5030 O.co2 242  ASP242     -0.2456
    100  N         12.0530    2.0090   40.9650 N.3   276  VAL276     -0.1245
    101  CA        13.3700    1.7130   40.4490 C.3   276  VAL276      0.1561
    102  C         14.3760    2.2550   41.4550 C.2   276  VAL276      0.2260
    103  O         14.3970    3.4570   41.7700 O.2   276  VAL276     -0.2867
    104  CB        13.5840    2.3400   39.0760 C.3   276  VAL276      0.0252
    105  CG1       15.0980    2.2250   38.7530 C.3   276  VAL276      0.0019
    106  CG2       12.7560    1.5610   38.0280 C.3   276  VAL276      0.0019
    107  N         18.3700    2.7120   42.5540 N.3   278  PHE278     -0.1241
    108  CA        19.7620    2.7540   42.1040 C.3   278  PHE278      0.1605
    109  C         20.5490    3.3130   43.2660 C.2   278  PHE278      0.2264
    110  O         20.2030    4.3630   43.8000 O.2   278  PHE278     -0.2867
    111  CB        19.8700    3.6510   40.9060 C.3   278  PHE278      0.0534
    112  CG        21.3000    3.8990   40.5200 C.ar  278  PHE278     -0.0203
    113  CD1       22.1430    2.8150   40.3050 C.ar  278  PHE278     -0.0042
    114  CD2       21.7860    5.1980   40.3480 C.ar  278  PHE278     -0.0042
    115  CE1       23.4630    3.0060   39.9130 C.ar  278  PHE278     -0.0003
    116  CE2       23.1100    5.4020   39.9800 C.ar  278  PHE278     -0.0003
    117  CZ        23.9420    4.3060   39.7510 C.ar  278  PHE278     -0.0000
    118  N         28.7810    4.0580   41.7790 N.3   282  PHE282     -0.1241
    119  CA        29.8320    4.6870   40.9800 C.3   282  PHE282      0.1605
    120  C         31.2920    4.3230   41.2510 C.2   282  PHE282      0.2264
    121  O         32.1910    4.9190   40.6490 O.2   282  PHE282     -0.2867
    122  CB        29.7510    6.1860   41.2080 C.3   282  PHE282      0.0534
    123  CG        28.4010    6.6810   40.7990 C.ar  282  PHE282     -0.0203
    124  CD1       27.5520    7.3100   41.7090 C.ar  282  PHE282     -0.0042
    125  CD2       27.9850    6.5290   39.4800 C.ar  282  PHE282     -0.0042
    126  CE1       26.3090    7.8090   41.3170 C.ar  282  PHE282     -0.0003
    127  CE2       26.7460    7.0250   39.0710 C.ar  282  PHE282     -0.0003
    128  CZ        25.9100    7.6610   39.9920 C.ar  282  PHE282     -0.0000
    129  N         12.7860    5.9640   42.2300 N.3   303  GLU303     -0.1245
    130  CA        12.1300    6.4800   41.0530 C.3   303  GLU303      0.1567
    131  C         10.8830    5.7220   40.8290 C.2   303  GLU303      0.2260
    132  O         10.9660    4.5640   40.4540 O.2   303  GLU303     -0.2867
    133  CB        13.0630    6.1730   39.8880 C.3   303  GLU303      0.0388
    134  CG        14.3990    6.8540   40.1810 C.3   303  GLU303      0.1160
    135  CD        15.4640    6.4170   39.2150 C.2   303  GLU303      0.3649
    136  OE1       15.4190    6.6730   38.0280 O.co2 303  GLU303     -0.2457
    137  OE2       16.4570    5.7970   39.7840 O.co2 303  GLU303     -0.2457
@<TRIPOS>BOND
     1    39    38    2
     2    38    37    1
     3    36    37    1
     4    37    40    1
     5    45    46    1
     6    40    41    1
     7    41    42    1
     8    48    47    2
     9    27    28    2
    10    27    26    1
    11    46    47    1
    12    46    49    1
    13    47    53   am
    14    49    50    1
    15    43    42   ar
    16    42    44   ar
    17    55    56    2
    18    55    54    1
    19    26    29    1
    20    26    25    1
    21    29    30    1
    22    53    54    1
    23    24    23    2
    24    30    31    1
    25    54    57    1
    26    50    52    1
    27    50    51    1
    28    25    23   am
    29    31    32    1
    30    23    22    1
    31    83    84    1
    32    32    33    2
    33    20    19    1
    34    85    84    1
    35    85    86    2
    36    57    58    1
    37    84    87    1
    38    22    21    1
    39    33    35    1
    40    33    34    1
    41    19    18   ar
    42    19    17   ar
    43    58    59    2
    44    58    60   am
    45    87    88    1
    46    18    16   ar
    47    17    15   ar
    48    90    89   ar
    49    88    89    1
    50    89    91   ar
    51    16    14   ar
    52    15    14   ar
    53    14    13    1
    54     9    10    1
    55    13    10    1
    56     7     6   ar
    57     3     2    1
    58     3     4    2
    59     2     1    1
    60     2     5    1
    61    10    11    1
    62    99    97   ar
    63     6     5    1
    64     6     8   ar
    65    68    70   ar
    66    68    66   ar
    67    70    69   ar
    68    98    97   ar
    69   106   104    1
    70   136   135   ar
    71    11    12    2
    72    97    96    1
    73    95    94    2
    74    66    65    1
    75    66    67   ar
    76   105   104    1
    77    65    62    1
    78    69    67   ar
    79   127   125   ar
    80   127   128   ar
    81   104   101    1
    82    96    93    1
    83   135   137   ar
    84   135   134    1
    85    94    93    1
    86   125   123   ar
    87   117   115   ar
    88   117   116   ar
    89    61    62    1
    90   133   134    1
    91   133   130    1
    92   115   113   ar
    93   116   114   ar
    94   128   126   ar
    95    93    92    1
    96    62    63    1
    97    82    81    1
    98   113   112   ar
    99   114   112   ar
   100   101   100    1
   101   101   102    1
   102   132   131    2
   103   112   111    1
   104   121   120    2
   105   123   122    1
   106   123   124   ar
   107   131   130    1
   108   111   108    1
   109   119   122    1
   110   119   120    1
   111   119   118    1
   112   130   129    1
   113   126   124   ar
   114    63    64    2
   115    81    79   ar
   116    81    80   ar
   117   102   103    2
   118    79    77   ar
   119   108   107    1
   120   108   109    1
   121    80    78   ar
   122    77    76   ar
   123   109   110    2
   124    78    76   ar
   125    76    75    1
   126    71    72    1
   127    75    72    1
   128    72    73    1
   129    73    74    2
