@<TRIPOS>MOLECULE
tmp/1nsyA01.pdb
 152 148 0 0 0
SMALL
GASTEIGER

@<TRIPOS>ATOM
      1  N         17.7480   46.3370   40.4240 N.3   129  PHE129     -0.1241
      2  CA        17.9470   47.7120   39.9950 C.3   129  PHE129      0.1605
      3  C         16.7740   48.2300   39.1800 C.2   129  PHE129      0.2264
      4  O         16.3120   49.3530   39.3960 O.2   129  PHE129     -0.2867
      5  CB        19.2200   47.8270   39.1660 C.3   129  PHE129      0.0534
      6  CG        19.4300   49.2030   38.5880 C.ar  129  PHE129     -0.0203
      7  CD1       19.9420   50.2310   39.3740 C.ar  129  PHE129     -0.0042
      8  CD2       19.0350   49.5000   37.2880 C.ar  129  PHE129     -0.0042
      9  CE1       20.0840   51.5200   38.8700 C.ar  129  PHE129     -0.0003
     10  CE2       19.1990   50.7720   36.7630 C.ar  129  PHE129     -0.0003
     11  CZ        19.7240   51.7830   37.5610 C.ar  129  PHE129     -0.0000
     12  N         13.5590   51.1140   40.0960 N.3   133  ASN133     -0.1240
     13  CA        13.0410   52.2040   39.2480 C.3   133  ASN133      0.1653
     14  C         11.5220   52.1450   39.0310 C.2   133  ASN133      0.2266
     15  O         10.8680   53.1650   38.8690 O.2   133  ASN133     -0.2867
     16  CB        13.8140   52.2680   37.9390 C.3   133  ASN133      0.1155
     17  CG        15.1940   52.8820   38.1290 C.2   133  ASN133      0.2627
     18  OD1       15.4300   53.6060   39.0890 O.2   133  ASN133     -0.2716
     19  ND2       16.1040   52.6110   37.2200 N.am  133  ASN133     -0.0877
     20  N          8.7420   55.1680   39.8830 N.3   137  ARG137     -0.1245
     21  CA         7.7670   55.6480   38.9390 C.3   137  ARG137      0.1563
     22  C          6.3550   55.4080   39.4430 C.2   137  ARG137      0.2260
     23  O          5.4630   56.2040   39.2010 O.2   137  ARG137     -0.2867
     24  CB         8.0420   55.0050   37.5740 C.3   137  ARG137      0.0307
     25  CG         9.3830   55.5120   37.0040 C.3   137  ARG137      0.0489
     26  CD         9.8120   54.7770   35.7110 C.3   137  ARG137      0.2205
     27  NE        10.9880   55.4400   35.1190 N.pl3 137  ARG137     -0.0865
     28  CZ        12.1310   54.8560   34.7820 C.cat 137  ARG137      0.5346
     29  NH1       12.3060   53.5630   34.9050 N.pl3 137  ARG137      0.1354
     30  NH2       13.1100   55.5920   34.3260 N.pl3 137  ARG137      0.1354
     31  N         24.4620   65.2990   39.7080 N.3   165  THR165     -0.1203
     32  CA        24.8360   63.8870   39.4620 C.3   165  THR165      0.1994
     33  C         23.7410   63.0450   38.7250 C.2   165  THR165      0.2618
     34  O         23.9080   61.8260   38.5170 O.2   165  THR165     -0.2717
     35  CB        25.0520   63.1630   40.8010 C.3   165  THR165      0.1784
     36  OG1       23.8890   63.3720   41.6190 O.3   165  THR165     -0.2211
     37  CG2       26.3340   63.6650   41.5190 C.3   165  THR165      0.0376
     38  N         22.6190   63.6790   38.3960 N.am  166  GLY166     -0.1942
     39  CA        21.5130   63.0100   37.7440 C.3   166  GLY166      0.2014
     40  C         21.0360   61.8750   38.6020 C.2   166  GLY166      0.2639
     41  O         20.5870   60.8260   38.1090 O.2   166  GLY166     -0.2714
     42  N         21.1020   62.0980   39.9050 N.am  167  PHE167     -0.1959
     43  CA        20.7070   61.0780   40.8580 C.3   167  PHE167      0.1771
     44  C         19.2330   61.2440   41.1640 C.2   167  PHE167      0.2620
     45  O         18.8760   61.9060   42.1380 O.2   167  PHE167     -0.2715
     46  CB        21.5060   61.2900   42.1510 C.3   167  PHE167      0.0574
     47  CG        21.5180   60.1080   43.0790 C.ar  167  PHE167     -0.0200
     48  CD1       20.5720   59.9740   44.0780 C.ar  167  PHE167     -0.0042
     49  CD2       22.5300   59.1790   43.0210 C.ar  167  PHE167     -0.0042
     50  CE1       20.6060   58.8880   44.9780 C.ar  167  PHE167     -0.0003
     51  CE2       22.5780   58.1110   43.9250 C.ar  167  PHE167     -0.0003
     52  CZ        21.6100   57.9720   44.8920 C.ar  167  PHE167     -0.0000
     53  N         18.3940   60.7300   40.2800 N.am  168  PHE168     -0.1960
     54  CA        16.9450   60.7230   40.4060 C.3   168  PHE168      0.1771
     55  C         16.5370   59.8720   39.2390 C.2   168  PHE168      0.2620
     56  O         17.3180   59.7110   38.2930 O.2   168  PHE168     -0.2715
     57  CB        16.2530   62.1070   40.4160 C.3   168  PHE168      0.0574
     58  CG        16.4810   62.9520   39.1660 C.ar  168  PHE168     -0.0200
     59  CD1       15.6550   62.8370   38.0580 C.ar  168  PHE168     -0.0042
     60  CD2       17.4230   63.9580   39.1680 C.ar  168  PHE168     -0.0042
     61  CE1       15.8360   63.6300   36.9350 C.ar  168  PHE168     -0.0003
     62  CE2       17.5970   64.7930   38.0560 C.ar  168  PHE168     -0.0003
     63  CZ        16.7820   64.6490   36.9430 C.ar  168  PHE168     -0.0000
     64  N         15.3730   59.2570   39.3680 N.am  169  THR169     -0.1937
     65  CA        14.7980   58.3980   38.3290 C.3   169  THR169      0.2028
     66  C         14.0090   59.2730   37.3460 C.2   169  THR169      0.2642
     67  O         13.0980   60.0590   37.7420 O.2   169  THR169     -0.2714
     68  CB        13.8260   57.3600   38.9590 C.3   169  THR169      0.1808
     69  OG1       14.5610   56.5050   39.8600 O.3   169  THR169     -0.2208
     70  CG2       13.1230   56.4990   37.8820 C.3   169  THR169      0.0379
     71  N         14.3690   59.1370   36.0680 N.am  170  LYS170     -0.1977
     72  CA        13.7010   59.8400   34.9610 C.3   170  LYS170      0.1596
     73  C         12.2030   59.4340   34.9590 C.2   170  LYS170      0.2287
     74  O         11.8790   58.2300   34.9350 O.2   170  LYS170     -0.2864
     75  CB        14.3720   59.4220   33.6230 C.3   170  LYS170      0.0298
     76  CG        14.1000   60.3280   32.4130 C.3   170  LYS170      0.0038
     77  CD        15.0270   59.9380   31.2570 C.3   170  LYS170      0.0206
     78  CE        14.7160   60.6940   30.0250 C.3   170  LYS170      0.1093
     79  NZ        15.7330   60.4840   28.9500 N.3   170  LYS170     -0.1314
     80  N         26.5740   54.4560   46.4070 N.3   223  GLU223     -0.1245
     81  CA        26.2770   54.3600   44.9680 C.3   223  GLU223      0.1567
     82  C         27.1820   55.3330   44.2190 C.2   223  GLU223      0.2260
     83  O         27.8520   54.9580   43.2630 O.2   223  GLU223     -0.2867
     84  CB        24.8130   54.7150   44.7050 C.3   223  GLU223      0.0388
     85  CG        24.4380   54.6330   43.2230 C.3   223  GLU223      0.1160
     86  CD        22.9750   54.9900   42.9550 C.2   223  GLU223      0.3649
     87  OE1       22.1990   55.3080   43.9350 O.co2 223  GLU223     -0.2457
     88  OE2       22.5180   54.9720   41.7500 O.co2 223  GLU223     -0.2457
     89  N         30.1490   62.7650   35.1570 N.3   251  ARG251     -0.1245
     90  CA        28.8000   62.3810   35.5140 C.3   251  ARG251      0.1563
     91  C         27.7090   63.3630   35.0220 C.2   251  ARG251      0.2260
     92  O         26.6170   62.9780   34.5830 O.2   251  ARG251     -0.2867
     93  CB        28.7320   62.1450   37.0240 C.3   251  ARG251      0.0307
     94  CG        27.4840   61.4280   37.4710 C.3   251  ARG251      0.0489
     95  CD        27.7210   60.7260   38.7680 C.3   251  ARG251      0.2205
     96  NE        26.7670   59.6450   38.9460 N.pl3 251  ARG251     -0.0865
     97  CZ        27.0880   58.4910   39.5040 C.cat 251  ARG251      0.5346
     98  NH1       28.3300   58.3080   39.9270 N.pl3 251  ARG251      0.1354
     99  NH2       26.1790   57.5260   39.6620 N.pl3 251  ARG251      0.1354
    100  N         27.0390   62.9770   31.2180 N.3   254  MET254     -0.1230
    101  CA        26.3360   61.7570   30.9000 C.3   254  MET254      0.1702
    102  C         24.8480   61.7240   31.2540 C.2   254  MET254      0.2593
    103  O         24.1070   60.8790   30.7690 O.2   254  MET254     -0.2718
    104  CB        27.0730   60.6110   31.5380 C.3   254  MET254      0.0401
    105  CG        28.5000   60.5040   30.9840 C.3   254  MET254      0.0596
    106  SD        29.1900   58.8640   31.2420 S.3   254  MET254     -0.1393
    107  CE        28.1510   58.2930   32.7150 C.3   254  MET254      0.0692
    108  N         24.4260   62.6520   32.0980 N.am  255  THR255     -0.1953
    109  CA        23.0390   62.7170   32.5770 C.3   255  THR255      0.1897
    110  C         22.2760   63.9410   32.0310 C.2   255  THR255      0.2313
    111  O         21.1800   64.2780   32.5090 O.2   255  THR255     -0.2863
    112  CB        22.9980   62.6680   34.1950 C.3   255  THR255      0.1794
    113  OG1       23.8150   63.6950   34.7600 O.3   255  THR255     -0.2208
    114  CG2       23.6340   61.4250   34.6910 C.3   255  THR255      0.0378
    115  N         20.6460   64.2960   29.6200 N.3   257  HIS257     -0.1226
    116  CA        19.3550   63.9000   29.1310 C.3   257  HIS257      0.1752
    117  C         18.2810   63.9410   30.1720 C.2   257  HIS257      0.2595
    118  O         17.1070   64.1160   29.8510 O.2   257  HIS257     -0.2718
    119  CB        19.4120   62.5340   28.4250 C.3   257  HIS257      0.0759
    120  CG        19.4260   61.3730   29.3570 C.ar  257  HIS257      0.0818
    121  ND1       20.5880   60.8480   29.8660 N.ar  257  HIS257     -0.2268
    122  CD2       18.4250   60.6480   29.8850 C.ar  257  HIS257      0.1154
    123  CE1       20.3070   59.8220   30.6440 C.ar  257  HIS257      0.1986
    124  NE2       18.9940   59.6980   30.6960 N.ar  257  HIS257     -0.2212
    125  N         18.6640   63.7970   31.4310 N.am  258  LYS258     -0.1980
    126  CA        17.6670   63.8110   32.5050 C.3   258  LYS258      0.1596
    127  C         17.2290   65.2040   32.7890 C.2   258  LYS258      0.2287
    128  O         16.1940   65.4250   33.4200 O.2   258  LYS258     -0.2864
    129  CB        18.2390   63.2220   33.7960 C.3   258  LYS258      0.0298
    130  CG        18.4740   61.6960   33.7470 C.3   258  LYS258      0.0038
    131  CD        18.4410   61.0200   35.1430 C.3   258  LYS258      0.0206
    132  CE        19.0920   59.6780   35.1060 C.3   258  LYS258      0.1093
    133  NZ        19.0880   59.0330   36.4390 N.3   258  LYS258     -0.1314
    134  N         14.8630   64.5570   23.4660 N.3   263  ALA263     -0.1245
    135  CA        15.6290   65.0410   22.3140 C.3   263  ALA263      0.1562
    136  C         14.9390   64.8930   20.9140 C.2   263  ALA263      0.2260
    137  O         14.2840   63.9030   20.6460 O.2   263  ALA263     -0.2867
    138  CB        16.9420   64.3580   22.2980 C.3   263  ALA263      0.0290
    139  N         22.0220   70.2370   21.9810 N.3   269  TRP269     -0.1241
    140  CA        22.6720   69.7800   23.1870 C.3   269  TRP269      0.1605
    141  C         23.2270   68.3780   23.1410 C.2   269  TRP269      0.2264
    142  O         24.1970   68.0780   23.8150 O.2   269  TRP269     -0.2867
    143  CB        21.8160   70.0230   24.4440 C.3   269  TRP269      0.0550
    144  CG        20.6040   69.1710   24.5290 C.ar  269  TRP269      0.0003
    145  CD1       19.3310   69.5250   24.1970 C.ar  269  TRP269      0.0946
    146  CD2       20.5500   67.7990   24.9300 C.ar  269  TRP269      0.0152
    147  NE1       18.4980   68.4460   24.3100 N.ar  269  TRP269     -0.2442
    148  CE2       19.2190   67.3680   24.7630 C.ar  269  TRP269      0.0810
    149  CE3       21.5040   66.8770   25.3760 C.ar  269  TRP269      0.0012
    150  CZ2       18.7960   66.0840   25.1260 C.ar  269  TRP269      0.0191
    151  CZ3       21.0820   65.5870   25.7370 C.ar  269  TRP269      0.0001
    152  CH2       19.7360   65.2150   25.6160 C.ar  269  TRP269      0.0015
@<TRIPOS>BOND
     1   137   136    2
     2   136   135    1
     3   139   140    1
     4   138   135    1
     5   135   134    1
     6   141   140    1
     7   141   142    2
     8   140   143    1
     9   145   147   ar
    10   145   144   ar
    11   147   148   ar
    12   143   144    1
    13   144   146   ar
    14   148   146   ar
    15   148   150   ar
    16   146   149   ar
    17   150   152   ar
    18   149   151   ar
    19   152   151   ar
    20   119   116    1
    21   119   120    1
    22    79    78    1
    23   116   115    1
    24   116   117    1
    25   120   121   ar
    26   120   122   ar
    27   118   117    2
    28   121   123   ar
    29   122   124   ar
    30    78    77    1
    31   117   125   am
    32   123   124   ar
    33   103   102    2
    34   101   100    1
    35   101   102    1
    36   101   104    1
    37   105   106    1
    38   105   104    1
    39   106   107    1
    40   102   108   am
    41    77    76    1
    42   125   126    1
    43   110   111    2
    44   110   109    1
    45   108   109    1
    46    76    75    1
    47   126   127    1
    48   126   129    1
    49   109   112    1
    50   127   128    2
    51    75    72    1
    52   130   129    1
    53   130   131    1
    54   112   114    1
    55   112   113    1
    56    30    28    1
    57    92    91    2
    58    28    29    1
    59    28    27    2
    60    74    73    2
    61    73    72    1
    62    72    71    1
    63    91    90    1
    64   132   131    1
    65   132   133    1
    66    27    26    1
    67    89    90    1
    68    90    93    1
    69    26    25    1
    70    71    66   am
    71    10     8   ar
    72    10    11   ar
    73    61    63   ar
    74    61    59   ar
    75    63    62   ar
    76    25    24    1
    77    93    94    1
    78    19    17   am
    79     8     6   ar
    80    66    67    2
    81    66    65    1
    82    94    95    1
    83    11     9   ar
    84    24    21    1
    85    39    38    1
    86    39    40    1
    87    70    68    1
    88    16    17    1
    89    16    13    1
    90    62    60   ar
    91    59    58   ar
    92    41    40    2
    93    17    18    2
    94    56    55    2
    95    65    68    1
    96    65    64    1
    97    38    33   am
    98    34    33    2
    99     6     5    1
   100     6     7   ar
   101    40    42   am
   102    33    32    1
   103    95    96    1
   104    15    14    2
   105     9     7   ar
   106    21    22    1
   107    21    20    1
   108    96    97    2
   109    68    69    1
   110    14    13    1
   111     5     2    1
   112    58    60   ar
   113    58    57    1
   114     3     4    2
   115     3     2    1
   116    23    22    2
   117    55    64   am
   118    55    54    1
   119    13    12    1
   120    32    31    1
   121    32    35    1
   122    97    99    1
   123    97    98    1
   124    42    43    1
   125     2     1    1
   126    53    54    1
   127    53    44   am
   128    54    57    1
   129    35    37    1
   130    35    36    1
   131    43    44    1
   132    43    46    1
   133    44    45    2
   134    88    86   ar
   135    46    47    1
   136    86    85    1
   137    86    87   ar
   138    49    47   ar
   139    49    51   ar
   140    47    48   ar
   141    85    84    1
   142    83    82    2
   143    51    52   ar
   144    48    50   ar
   145    82    81    1
   146    84    81    1
   147    52    50   ar
   148    81    80    1
