@<TRIPOS>MOLECULE
tmp/1nt1A01.pdb
 198 196 0 0 0
SMALL
GASTEIGER

@<TRIPOS>ATOM
      1  N         22.4800   -6.9060   18.5110 N.3    69  HIS69      -0.1241
      2  CA        22.3470   -8.2810   18.0530 C.3    69  HIS69       0.1621
      3  C         21.6700   -8.4110   16.6990 C.2    69  HIS69       0.2264
      4  O         21.7100   -9.4690   16.0740 O.2    69  HIS69      -0.2867
      5  CB        21.7120   -9.1830   19.1050 C.3    69  HIS69       0.0745
      6  CG        20.2280   -9.0920   19.1860 C.ar   69  HIS69       0.0817
      7  ND1       19.5790   -8.3590   20.1570 N.ar   69  HIS69      -0.2268
      8  CD2       19.2520   -9.7030   18.4690 C.ar   69  HIS69       0.1154
      9  CE1       18.2750   -8.5250   20.0410 C.ar   69  HIS69       0.1986
     10  NE2       18.0480   -9.3360   19.0280 N.ar   69  HIS69      -0.2212
     11  N         25.9480  -11.0570   15.4880 N.3    73  TYR73      -0.1241
     12  CA        25.6430  -12.1600   16.3860 C.3    73  TYR73       0.1605
     13  C         26.3320  -13.4170   15.8810 C.2    73  TYR73       0.2264
     14  O         25.6930  -14.3010   15.2840 O.2    73  TYR73      -0.2867
     15  CB        24.1480  -12.3660   16.5070 C.3    73  TYR73       0.0534
     16  CG        23.8010  -13.2280   17.6770 C.ar   73  TYR73      -0.0201
     17  CD1       24.2560  -12.8980   18.9490 C.ar   73  TYR73      -0.0009
     18  CD2       23.0260  -14.3770   17.5220 C.ar   73  TYR73      -0.0009
     19  CE1       23.9500  -13.6860   20.0430 C.ar   73  TYR73       0.0417
     20  CE2       22.7060  -15.1720   18.6070 C.ar   73  TYR73       0.0417
     21  CZ        23.1750  -14.8170   19.8700 C.ar   73  TYR73       0.1957
     22  OH        22.8580  -15.5760   20.9700 O.3    73  TYR73      -0.2866
     23  N         25.0610  -17.1530   15.3040 N.3    76  TRP76      -0.1241
     24  CA        24.2160  -17.4120   14.1330 C.3    76  TRP76       0.1605
     25  C         24.8650  -16.8720   12.8820 C.2    76  TRP76       0.2264
     26  O         24.1780  -16.5470   11.9160 O.2    76  TRP76      -0.2867
     27  CB        22.8190  -16.8030   14.2810 C.3    76  TRP76       0.0550
     28  CG        22.0360  -17.3490   15.4220 C.ar   76  TRP76       0.0003
     29  CD1       22.3750  -18.4100   16.2110 C.ar   76  TRP76       0.0946
     30  CD2       20.8130  -16.8200   15.9550 C.ar   76  TRP76       0.0152
     31  NE1       21.4490  -18.5670   17.2140 N.ar   76  TRP76      -0.2442
     32  CE2       20.4800  -17.6110   17.0820 C.ar   76  TRP76       0.0810
     33  CE3       19.9730  -15.7560   15.5960 C.ar   76  TRP76       0.0012
     34  CZ2       19.3350  -17.3670   17.8600 C.ar   76  TRP76       0.0191
     35  CZ3       18.8320  -15.5140   16.3720 C.ar   76  TRP76       0.0001
     36  CH2       18.5280  -16.3200   17.4920 C.ar   76  TRP76       0.0015
     37  N         25.7040  -14.1510   12.0590 N.3    78  LYS78      -0.1245
     38  CA        25.1420  -12.8860   11.6230 C.3    78  LYS78       0.1561
     39  C         26.1490  -11.7580   11.8190 C.2    78  LYS78       0.2260
     40  O         26.7270  -11.6110   12.8990 O.2    78  LYS78      -0.2867
     41  CB        23.8720  -12.5890   12.4070 C.3    78  LYS78       0.0271
     42  CG        23.2390  -11.2750   11.9810 C.3    78  LYS78       0.0035
     43  CD        22.1010  -10.8810   12.9140 C.3    78  LYS78       0.0206
     44  CE        21.0200  -11.9520   12.9870 C.3    78  LYS78       0.1093
     45  NZ        19.9740  -11.4810   13.9250 N.3    78  LYS78      -0.1314
     46  N         27.7220  -13.9450   26.2720 N.3   120  GLU120     -0.1231
     47  CA        27.0070  -14.3890   27.4420 C.3   120  GLU120      0.1699
     48  C         25.5440  -14.0220   27.6280 C.2   120  GLU120      0.2592
     49  O         24.6760  -14.9010   27.6760 O.2   120  GLU120     -0.2718
     50  CB        27.7980  -13.9650   28.6810 C.3   120  GLU120      0.0402
     51  CG        27.1790  -14.4880   29.9780 C.3   120  GLU120      0.1161
     52  CD        27.8340  -13.8260   31.1680 C.2   120  GLU120      0.3649
     53  OE1       28.8360  -13.0880   30.9920 O.co2 120  GLU120     -0.2457
     54  OE2       27.3200  -14.0270   32.2920 O.co2 120  GLU120     -0.2457
     55  N         25.2550  -12.7310   27.7310 N.am  121  ASN121     -0.1960
     56  CA        23.8940  -12.3080   28.0270 C.3   121  ASN121      0.1819
     57  C         23.3620  -11.1110   27.2570 C.2   121  ASN121      0.2621
     58  O         22.3590  -10.5190   27.6550 O.2   121  ASN121     -0.2715
     59  CB        23.8290  -12.0190   29.5300 C.3   121  ASN121      0.1195
     60  CG        24.9570  -11.0990   29.9760 C.2   121  ASN121      0.2630
     61  OD1       25.8270  -10.7130   29.1880 O.2   121  ASN121     -0.2716
     62  ND2       24.9550  -10.7470   31.2510 N.am  121  ASN121     -0.0877
     63  N         24.0140  -10.7520   26.1580 N.am  122  LEU122     -0.1977
     64  CA        23.5760   -9.6020   25.3690 C.3   122  LEU122      0.1596
     65  C         23.6050   -8.3190   26.1970 C.2   122  LEU122      0.2287
     66  O         22.6490   -7.5380   26.1900 O.2   122  LEU122     -0.2864
     67  CB        22.1850   -9.8330   24.7480 C.3   122  LEU122      0.0297
     68  CG        22.0790  -10.9600   23.7190 C.3   122  LEU122      0.0022
     69  CD1       20.7430  -10.9020   22.9630 C.3   122  LEU122      0.0001
     70  CD2       23.2560  -10.8960   22.7600 C.3   122  LEU122      0.0001
     71  N          4.9290  -17.7910   19.6970 N.3   172  GLU172     -0.1245
     72  CA         6.2540  -18.3900   19.7840 C.3   172  GLU172      0.1567
     73  C          6.4620  -19.4610   18.7250 C.2   172  GLU172      0.2260
     74  O          7.3330  -19.2430   17.8500 O.2   172  GLU172     -0.2867
     75  CB         6.4560  -18.9890   21.1700 C.3   172  GLU172      0.0388
     76  CG         7.9010  -19.4060   21.4090 C.3   172  GLU172      0.1160
     77  CD         8.0160  -20.0160   22.7820 C.2   172  GLU172      0.3649
     78  OE1        8.9790  -20.7750   22.9870 O.co2 172  GLU172     -0.2457
     79  OE2        7.1600  -19.7580   23.6580 O.co2 172  GLU172     -0.2457
     80  N         20.2130  -16.8890   33.3850 N.3   197  ILE197     -0.1245
     81  CA        21.1260  -15.9180   32.7810 C.3   197  ILE197      0.1561
     82  C         21.5240  -14.8000   33.7360 C.2   197  ILE197      0.2260
     83  O         20.7060  -14.3430   34.5220 O.2   197  ILE197     -0.2867
     84  CB        20.5000  -15.3430   31.4920 C.3   197  ILE197      0.0252
     85  CG1       20.0640  -16.5050   30.5770 C.3   197  ILE197      0.0019
     86  CG2       21.5040  -14.4600   30.7300 C.3   197  ILE197      0.0019
     87  CD1       21.2330  -17.3720   30.1170 C.3   197  ILE197      0.0001
     88  N          3.7690   -9.9290   25.2950 N.3   217  ASP217     -0.1225
     89  CA         5.2280   -9.9390   25.2820 C.3   217  ASP217      0.1805
     90  C          5.6930   -9.6370   23.8800 C.2   217  ASP217      0.2598
     91  O          4.8810   -9.4680   22.9730 O.2   217  ASP217     -0.2718
     92  CB         5.7110  -11.3570   25.6810 C.3   217  ASP217      0.1424
     93  CG         7.2190  -11.4480   25.9450 C.2   217  ASP217      0.3668
     94  OD1        7.7400  -12.5860   26.0120 O.co2 217  ASP217     -0.2456
     95  OD2        7.8930  -10.4210   26.1490 O.co2 217  ASP217     -0.2456
     96  N          6.9860   -9.3970   23.7400 N.am  218  ALA218     -0.1966
     97  CA         7.6110   -9.1690   22.4630 C.3   218  ALA218      0.1728
     98  C          7.9210  -10.5900   22.0010 C.2   218  ALA218      0.2616
     99  O          7.7470  -11.5410   22.7650 O.2   218  ALA218     -0.2715
    100  CB         8.9130   -8.3900   22.6500 C.3   218  ALA218      0.0334
    101  N          8.4870  -10.7360   20.8140 N.am  219  CYS219     -0.1954
    102  CA         8.8080  -12.0570   20.2930 C.3   219  CYS219      0.1843
    103  C          9.7860  -11.8700   19.1620 C.2   219  CYS219      0.2625
    104  O         10.2280  -10.7490   18.9050 O.2   219  CYS219     -0.2714
    105  CB         7.5380  -12.7780   19.8090 C.3   219  CYS219      0.0997
    106  SG         7.6610  -14.6080   19.6660 S.3   219  CYS219     -0.0797
    107  N         10.2090  -12.9690   18.5460 N.am  220  GLU220     -0.1977
    108  CA        11.1540  -12.8900   17.4300 C.3   220  GLU220      0.1602
    109  C         10.6400  -11.9100   16.3760 C.2   220  GLU220      0.2287
    110  O          9.4470  -11.9070   16.0650 O.2   220  GLU220     -0.2864
    111  CB        11.2860  -14.2760   16.8240 C.3   220  GLU220      0.0415
    112  CG        12.2340  -14.2910   15.6180 C.3   220  GLU220      0.1163
    113  CD        12.3380  -15.6990   15.0770 C.2   220  GLU220      0.3649
    114  OE1       13.0600  -15.9040   14.1120 O.co2 220  GLU220     -0.2457
    115  OE2       11.6890  -16.5850   15.6300 O.co2 220  GLU220     -0.2457
    116  N         12.8670   -7.6130   17.9830 N.3   223  SER223     -0.1217
    117  CA        14.1800   -7.1250   18.4230 C.3   223  SER223      0.1889
    118  C         14.5500   -5.7430   17.9060 C.2   223  SER223      0.2288
    119  O         14.2870   -5.4300   16.7610 O.2   223  SER223     -0.2866
    120  CB        15.2930   -8.0980   17.9980 C.3   223  SER223      0.2089
    121  OG        15.2210   -9.3370   18.6830 O.3   223  SER223     -0.2183
    122  N         14.0650   -3.5660   22.8030 N.3   243  VAL243     -0.1231
    123  CA        13.6910   -4.9860   22.8710 C.3   243  VAL243      0.1692
    124  C         14.9870   -5.7620   22.6880 C.2   243  VAL243      0.2593
    125  O         15.6830   -5.5900   21.6910 O.2   243  VAL243     -0.2718
    126  CB        12.6940   -5.3430   21.7370 C.3   243  VAL243      0.0266
    127  CG1       12.3180   -6.8470   21.7570 C.3   243  VAL243      0.0020
    128  CG2       11.4220   -4.4600   21.7910 C.3   243  VAL243      0.0020
    129  N         15.3310   -6.6080   23.6490 N.am  244  SER244     -0.1938
    130  CA        16.5900   -7.3300   23.5600 C.3   244  SER244      0.2055
    131  C         16.5390   -8.8440   23.4830 C.2   244  SER244      0.2643
    132  O         16.8910   -9.4210   22.4510 O.2   244  SER244     -0.2714
    133  CB        17.5340   -6.8890   24.6990 C.3   244  SER244      0.2130
    134  OG        18.8360   -7.4600   24.6020 O.3   244  SER244     -0.2179
    135  N         16.1140   -9.5040   24.5580 N.am  245  TRP245     -0.1959
    136  CA        16.1140  -10.9540   24.5680 C.3   245  TRP245      0.1771
    137  C         15.0770  -11.5620   25.4680 C.2   245  TRP245      0.2620
    138  O         14.4460  -10.8850   26.2770 O.2   245  TRP245     -0.2715
    139  CB        17.5270  -11.4930   24.9130 C.3   245  TRP245      0.0590
    140  CG        18.0280  -11.1670   26.3180 C.ar  245  TRP245      0.0006
    141  CD1       18.6980  -10.0350   26.7180 C.ar  245  TRP245      0.0946
    142  CD2       17.8710  -11.9790   27.4920 C.ar  245  TRP245      0.0152
    143  NE1       18.9610  -10.0980   28.0620 N.ar  245  TRP245     -0.2442
    144  CE2       18.4680  -11.2750   28.5630 C.ar  245  TRP245      0.0810
    145  CE3       17.2810  -13.2270   27.7460 C.ar  245  TRP245      0.0012
    146  CZ2       18.4840  -11.7810   29.8700 C.ar  245  TRP245      0.0191
    147  CZ3       17.2920  -13.7270   29.0390 C.ar  245  TRP245      0.0001
    148  CH2       17.8950  -13.0030   30.0860 C.ar  245  TRP245      0.0015
    149  N         14.7810  -12.8220   25.1910 N.am  246  GLY246     -0.1940
    150  CA        13.8200  -13.5500   25.9840 C.3   246  GLY246      0.2014
    151  C         14.0550  -15.0200   25.7240 C.2   246  GLY246      0.2639
    152  O         14.8280  -15.3890   24.8280 O.2   246  GLY246     -0.2714
    153  N         13.4450  -15.8440   26.5610 N.am  247  GLU247     -0.1963
    154  CA        13.5320  -17.2950   26.4540 C.3   247  GLU247      0.1733
    155  C         12.0850  -17.6810   26.1950 C.2   247  GLU247      0.2617
    156  O         11.2920  -17.8490   27.1280 O.2   247  GLU247     -0.2715
    157  CB        14.0550  -17.8670   27.7830 C.3   247  GLU247      0.0429
    158  CG        15.4170  -17.2470   28.1380 C.3   247  GLU247      0.1163
    159  CD        15.8360  -17.6240   29.5470 C.2   247  GLU247      0.3649
    160  OE1       16.7730  -18.4250   29.7000 O.co2 247  GLU247     -0.2457
    161  OE2       15.2540  -17.1070   30.5160 O.co2 247  GLU247     -0.2457
    162  N         11.7050  -17.7020   24.9190 N.am  248  GLY248     -0.1940
    163  CA        10.3240  -17.9960   24.5750 C.3   248  GLY248      0.2014
    164  C          9.5610  -16.6820   24.4490 C.2   248  GLY248      0.2639
    165  O         10.1500  -15.6080   24.5960 O.2   248  GLY248     -0.2714
    166  N          8.2580  -16.7520   24.1950 N.am  249  CYS249     -0.1967
    167  CA         7.4430  -15.5520   24.0420 C.3   249  CYS249      0.1712
    168  C          6.1750  -15.7420   24.8120 C.2   249  CYS249      0.2296
    169  O          5.4990  -16.7510   24.6640 O.2   249  CYS249     -0.2864
    170  CB         7.0820  -15.3010   22.5720 C.3   249  CYS249      0.0983
    171  SG         8.4970  -15.1550   21.4390 S.3   249  CYS249     -0.0798
    172  N         10.3510  -10.5090   29.1650 N.3   256  GLY256     -0.1210
    173  CA        11.2640  -10.0640   28.1340 C.3   256  GLY256      0.1956
    174  C         12.2510   -9.1050   28.7650 C.2   256  GLY256      0.2612
    175  O         11.9260   -8.4360   29.7480 O.2   256  GLY256     -0.2717
    176  N         13.4640   -9.0710   28.2310 N.am  257  PHE257     -0.1962
    177  CA        14.5120   -8.1930   28.7360 C.3   257  PHE257      0.1771
    178  C         14.8090   -7.1060   27.7410 C.2   257  PHE257      0.2619
    179  O         14.8200   -7.3400   26.5140 O.2   257  PHE257     -0.2715
    180  CB        15.7600   -8.9830   29.1090 C.3   257  PHE257      0.0574
    181  CG        15.5910   -9.7610   30.3690 C.ar  257  PHE257     -0.0200
    182  CD1       14.7000  -10.8330   30.4300 C.ar  257  PHE257     -0.0042
    183  CD2       16.2460   -9.3640   31.5330 C.ar  257  PHE257     -0.0042
    184  CE1       14.4560  -11.4960   31.6420 C.ar  257  PHE257     -0.0003
    185  CE2       16.0110  -10.0180   32.7390 C.ar  257  PHE257     -0.0003
    186  CZ        15.1140  -11.0840   32.7950 C.ar  257  PHE257     -0.0000
    187  N         15.1370   -5.9320   28.2700 N.am  258  TYR258     -0.1974
    188  CA        15.3700   -4.7630   27.4500 C.3   258  TYR258      0.1639
    189  C         16.6400   -4.0420   27.8080 C.2   258  TYR258      0.2290
    190  O         17.0060   -3.9530   28.9760 O.2   258  TYR258     -0.2864
    191  CB        14.1790   -3.7860   27.6490 C.3   258  TYR258      0.0560
    192  CG        12.8020   -4.3530   27.3030 C.ar  258  TYR258     -0.0198
    193  CD1       12.1100   -5.1980   28.1790 C.ar  258  TYR258     -0.0009
    194  CD2       12.2240   -4.0920   26.0680 C.ar  258  TYR258     -0.0009
    195  CE1       10.8800   -5.7710   27.8070 C.ar  258  TYR258      0.0417
    196  CE2       11.0090   -4.6500   25.7000 C.ar  258  TYR258      0.0417
    197  CZ        10.3460   -5.4850   26.5560 C.ar  258  TYR258      0.1957
    198  OH         9.1580   -6.0410   26.1200 O.3   258  TYR258     -0.2866
@<TRIPOS>BOND
     1    38    39    1
     2    38    37    1
     3    38    41    1
     4    39    40    2
     5    26    25    2
     6    42    41    1
     7    42    43    1
     8    25    24    1
     9    43    44    1
    10    44    45    1
    11   114   113   ar
    12    24    27    1
    13    24    23    1
    14    27    28    1
    15   113   112    1
    16   113   115   ar
    17    14    13    2
    18    28    30   ar
    19    28    29   ar
    20    11    12    1
    21    33    30   ar
    22    33    35   ar
    23   112   111    1
    24    13    12    1
    25    30    32   ar
    26   110   109    2
    27     4     3    2
    28    29    31   ar
    29    35    36   ar
    30   109   108    1
    31    12    15    1
    32    15    16    1
    33     3     2    1
    34   119   118    2
    35   111   108    1
    36    32    31   ar
    37    32    34   ar
    38   108   107    1
    39    36    34   ar
    40    18    16   ar
    41    18    20   ar
    42    16    17   ar
    43    74    73    2
    44   118   117    1
    45   116   117    1
    46   120   117    1
    47   120   121    1
    48     2     1    1
    49     2     5    1
    50     8    10   ar
    51     8     6   ar
    52   107   103   am
    53    20    21   ar
    54    73    72    1
    55   104   103    2
    56    17    19   ar
    57    10     9   ar
    58     5     6    1
    59   103   102    1
    60     6     7   ar
    61   106   105    1
    62   106   171    1
    63    71    72    1
    64    72    75    1
    65   105   102    1
    66    21    19   ar
    67    21    22    1
    68     9     7   ar
    69   102   101    1
    70   101    98   am
    71    75    76    1
    72    76    77    1
    73   171   170    1
    74   125   124    2
    75   126   127    1
    76   126   128    1
    77   126   123    1
    78    98    97    1
    79    98    99    2
    80   132   131    2
    81    97   100    1
    82    97    96    1
    83   170   167    1
    84   124   123    1
    85   124   129   am
    86    70    68    1
    87    77    78   ar
    88    77    79   ar
    89   122   123    1
    90    69    68    1
    91    91    90    2
    92   131   130    1
    93   131   135   am
    94   130   129    1
    95   130   133    1
    96    68    67    1
    97    96    90   am
    98    90    89    1
    99   167   166    1
   100   167   168    1
   101   166   164   am
   102   164   163    1
   103   164   165    2
   104   135   136    1
   105   136   139    1
   106   136   137    1
   107   163   162    1
   108   134   133    1
   109   169   168    2
   110    67    64    1
   111   152   151    2
   112   139   140    1
   113   162   155   am
   114   149   137   am
   115   149   150    1
   116    89    88    1
   117    89    92    1
   118    64    63    1
   119    64    65    1
   120   137   138    2
   121    92    93    1
   122   196   194   ar
   123   196   197   ar
   124   151   150    1
   125   151   153   am
   126    93    94   ar
   127    93    95   ar
   128   194   192   ar
   129   198   197    1
   130    63    57   am
   131    66    65    2
   132   155   154    1
   133   155   156    2
   134    46    47    1
   135   140   141   ar
   136   140   142   ar
   137   154   153    1
   138   154   157    1
   139   179   178    2
   140   197   195   ar
   141   141   143   ar
   142    57    58    2
   143    57    56    1
   144   192   191    1
   145   192   193   ar
   146    47    48    1
   147    47    50    1
   148   188   191    1
   149   188   189    1
   150   188   187    1
   151   142   145   ar
   152   142   144   ar
   153    48    49    2
   154    48    55   am
   155    55    56    1
   156   178   187   am
   157   178   177    1
   158   145   147   ar
   159   157   158    1
   160   195   193   ar
   161   189   190    2
   162    56    59    1
   163   143   144   ar
   164   173   174    1
   165   173   172    1
   166   158   159    1
   167   176   177    1
   168   176   174   am
   169   144   146   ar
   170    50    51    1
   171   177   180    1
   172   174   175    2
   173   147   148   ar
   174   180   181    1
   175    61    60    2
   176    59    60    1
   177   159   160   ar
   178   159   161   ar
   179   146   148   ar
   180    60    62   am
   181    51    52    1
   182    87    85    1
   183   181   182   ar
   184   181   183   ar
   185   182   184   ar
   186    85    84    1
   187    86    84    1
   188    53    52   ar
   189    52    54   ar
   190    84    81    1
   191   183   185   ar
   192   184   186   ar
   193   185   186   ar
   194    81    80    1
   195    81    82    1
   196    82    83    2
