@<TRIPOS>MOLECULE
tmp/1nt2A00.pdb
 185 179 0 0 0
SMALL
GASTEIGER

@<TRIPOS>ATOM
      1  N         28.9470   29.1690   39.4560 N.3    39  ARG39      -0.1245
      2  CA        30.2380   29.0720   38.8190 C.3    39  ARG39       0.1563
      3  C         30.0520   29.2360   37.3130 C.2    39  ARG39       0.2260
      4  O         30.7570   28.6010   36.5230 O.2    39  ARG39      -0.2867
      5  CB        30.8450   27.7080   39.1470 C.3    39  ARG39       0.0307
      6  CG        31.1120   27.4910   40.6280 C.3    39  ARG39       0.0489
      7  CD        32.5170   27.9390   41.0370 C.3    39  ARG39       0.2205
      8  NE        33.5530   27.2060   40.3060 N.pl3  39  ARG39      -0.0865
      9  CZ        34.8650   27.3020   40.5340 C.cat  39  ARG39       0.5346
     10  NH1       35.3220   28.1090   41.4880 N.pl3  39  ARG39       0.1354
     11  NH2       35.7300   26.5960   39.8020 N.pl3  39  ARG39       0.1354
     12  N         28.3990   32.5640   34.8390 N.3    41  LYS41      -0.1245
     13  CA        27.5710   33.7260   34.5800 C.3    41  LYS41       0.1561
     14  C         26.5580   33.4460   33.4860 C.2    41  LYS41       0.2260
     15  O         25.6820   34.2650   33.2200 O.2    41  LYS41      -0.2867
     16  CB        28.4520   34.9130   34.2000 C.3    41  LYS41       0.0271
     17  CG        29.0090   35.6480   35.3940 C.3    41  LYS41       0.0035
     18  CD        30.2570   36.4240   35.0420 C.3    41  LYS41       0.0206
     19  CE        31.5140   35.7400   35.5860 C.3    41  LYS41       0.1093
     20  NZ        31.7050   34.3440   35.0730 N.3    41  LYS41      -0.1314
     21  N         34.3730   32.3270   21.9430 N.3    62  TYR62      -0.1241
     22  CA        34.2880   32.6220   23.3690 C.3    62  TYR62       0.1605
     23  C         35.5000   33.4580   23.7910 C.2    62  TYR62       0.2264
     24  O         36.6490   33.0220   23.6660 O.2    62  TYR62      -0.2867
     25  CB        34.2250   31.2950   24.1460 C.3    62  TYR62       0.0534
     26  CG        33.8790   31.3950   25.6210 C.ar   62  TYR62      -0.0201
     27  CD1       34.7170   32.0640   26.5120 C.ar   62  TYR62      -0.0009
     28  CD2       32.7450   30.7670   26.1400 C.ar   62  TYR62      -0.0009
     29  CE1       34.4410   32.1070   27.8780 C.ar   62  TYR62       0.0417
     30  CE2       32.4640   30.8010   27.5150 C.ar   62  TYR62       0.0417
     31  CZ        33.3200   31.4760   28.3740 C.ar   62  TYR62       0.1957
     32  OH        33.0720   31.5430   29.7260 O.3    62  TYR62      -0.2866
     33  N         37.2520   34.6840   26.7950 N.3    64  GLY64      -0.1210
     34  CA        37.4400   34.5840   28.2340 C.3    64  GLY64       0.1956
     35  C         37.2230   33.1670   28.7560 C.2    64  GLY64       0.2612
     36  O         36.7360   32.9700   29.8750 O.2    64  GLY64      -0.2717
     37  N         37.5840   32.1770   27.9470 N.am   65  ALA65      -0.1965
     38  CA        37.4180   30.7770   28.3150 C.3    65  ALA65       0.1728
     39  C         37.6880   30.5300   29.7750 C.2    65  ALA65       0.2616
     40  O         36.9540   29.7810   30.4190 O.2    65  ALA65      -0.2715
     41  CB        38.3310   29.8990   27.4890 C.3    65  ALA65       0.0334
     42  N         38.7400   31.1520   30.2940 N.am   66  ALA66      -0.1963
     43  CA        39.0980   30.9820   31.6930 C.3    66  ALA66       0.1728
     44  C         39.5360   29.5410   31.8880 C.2    66  ALA66       0.2616
     45  O         40.1640   28.9710   31.0020 O.2    66  ALA66      -0.2715
     46  CB        37.9090   31.2900   32.5760 C.3    66  ALA66       0.0334
     47  N         39.2030   28.9510   33.0380 N.am   67  SER67      -0.1950
     48  CA        39.5650   27.5580   33.3160 C.3    67  SER67       0.1924
     49  C         38.7720   26.6610   32.3700 C.2    67  SER67       0.2314
     50  O         39.1900   25.5510   32.0480 O.2    67  SER67      -0.2863
     51  CB        39.2240   27.1840   34.7600 C.3    67  SER67       0.2116
     52  OG        37.8200   27.0400   34.9190 O.3    67  SER67      -0.2180
     53  N         34.9040   26.5440   32.6000 N.3    69  THR69      -0.1203
     54  CA        33.7170   25.9870   33.2250 C.3    69  THR69       0.1994
     55  C         32.4820   26.4080   32.4330 C.2    69  THR69       0.2618
     56  O         31.7270   25.5560   31.9730 O.2    69  THR69      -0.2717
     57  CB        33.5770   26.3970   34.7210 C.3    69  THR69       0.1784
     58  OG1       32.9920   27.6970   34.8190 O.3    69  THR69      -0.2211
     59  CG2       34.9430   26.3960   35.4070 C.3    69  THR69       0.0376
     60  N         32.2690   27.7060   32.2520 N.am   70  THR70      -0.1952
     61  CA        31.1060   28.1400   31.4760 C.3    70  THR70       0.1897
     62  C         31.2490   27.5460   30.0600 C.2    70  THR70       0.2313
     63  O         30.2640   27.1960   29.4190 O.2    70  THR70      -0.2863
     64  CB        31.0120   29.6980   31.3720 C.3    70  THR70       0.1794
     65  OG1       30.8900   30.2830   32.6770 O.3    70  THR70      -0.2208
     66  CG2       29.8100   30.0970   30.5490 C.3    70  THR70       0.0378
     67  N         39.2360   31.5950   23.6300 N.3    86  VAL86      -0.1231
     68  CA        40.4580   32.3880   23.8250 C.3    86  VAL86       0.1692
     69  C         40.6730   32.8010   25.2920 C.2    86  VAL86       0.2592
     70  O         39.7540   33.2870   25.9540 O.2    86  VAL86      -0.2718
     71  CB        40.4510   33.6750   22.9550 C.3    86  VAL86       0.0266
     72  CG1       40.0440   33.3370   21.5300 C.3    86  VAL86       0.0020
     73  CG2       39.5220   34.7110   23.5530 C.3    86  VAL86       0.0020
     74  N         41.8950   32.6030   25.7860 N.am   87  GLU87      -0.1966
     75  CA        42.2710   32.9380   27.1610 C.3    87  GLU87       0.1733
     76  C         43.7760   33.1790   27.1540 C.2    87  GLU87       0.2616
     77  O         44.5280   32.3330   26.6770 O.2    87  GLU87      -0.2715
     78  CB        41.9300   31.7730   28.0910 C.3    87  GLU87       0.0429
     79  CG        42.5230   31.8880   29.4740 C.3    87  GLU87       0.1163
     80  CD        42.0800   33.1390   30.2000 C.2    87  GLU87       0.3649
     81  OE1       40.8950   33.2270   30.5870 O.co2  87  GLU87      -0.2457
     82  OE2       42.9230   34.0390   30.3760 O.co2  87  GLU87      -0.2457
     83  N         44.2300   34.3150   27.6800 N.am   88  TYR88      -0.1960
     84  CA        45.6640   34.5860   27.6450 C.3    88  TYR88       0.1771
     85  C         46.5050   34.3410   28.8830 C.2    88  TYR88       0.2620
     86  O         47.7230   34.5280   28.8350 O.2    88  TYR88      -0.2715
     87  CB        45.9330   36.0070   27.1350 C.3    88  TYR88       0.0574
     88  CG        45.6160   37.1540   28.0670 C.ar   88  TYR88      -0.0198
     89  CD1       45.1240   36.9440   29.3440 C.ar   88  TYR88      -0.0009
     90  CD2       45.8170   38.4680   27.6490 C.ar   88  TYR88      -0.0009
     91  CE1       44.8380   38.0140   30.1770 C.ar   88  TYR88       0.0417
     92  CE2       45.5370   39.5400   28.4710 C.ar   88  TYR88       0.0417
     93  CZ        45.0460   39.3120   29.7320 C.ar   88  TYR88       0.1957
     94  OH        44.7500   40.3850   30.5400 O.3    88  TYR88      -0.2866
     95  N         45.8730   33.9290   29.9800 N.am   89  SER89      -0.1950
     96  CA        46.6070   33.6420   31.2100 C.3    89  SER89       0.1924
     97  C         46.8380   32.1440   31.2840 C.2    89  SER89       0.2314
     98  O         45.8890   31.3630   31.2510 O.2    89  SER89      -0.2863
     99  CB        45.8240   34.0990   32.4450 C.3    89  SER89       0.2116
    100  OG        46.5810   33.8900   33.6340 O.3    89  SER89      -0.2180
    101  N         44.9860   29.5950   34.3820 N.3    92  PRO92      -0.2116
    102  CA        43.6800   28.9920   34.1170 C.3    92  PRO92       0.1372
    103  C         43.7080   28.1170   32.8780 C.2    92  PRO92       0.2244
    104  O         43.0570   27.0730   32.8080 O.2    92  PRO92      -0.2868
    105  CB        42.7970   30.2060   33.9160 C.3    92  PRO92       0.0268
    106  CG        43.7100   31.1260   33.1780 C.3    92  PRO92       0.0207
    107  CD        44.9940   31.0080   33.9630 C.3    92  PRO92       0.0892
    108  N         45.7790   33.3980   22.9890 N.3   111  PHE111     -0.1227
    109  CA        46.1710   34.7480   22.5950 C.3   111  PHE111      0.1736
    110  C         45.3880   35.8350   23.2900 C.2   111  PHE111      0.2595
    111  O         44.3230   35.5860   23.8440 O.2   111  PHE111     -0.2718
    112  CB        45.9840   34.9110   21.0980 C.3   111  PHE111      0.0547
    113  CG        46.6510   33.8520   20.2970 C.ar  111  PHE111     -0.0202
    114  CD1       48.0370   33.7550   20.2690 C.ar  111  PHE111     -0.0042
    115  CD2       45.9000   32.9500   19.5640 C.ar  111  PHE111     -0.0042
    116  CE1       48.6740   32.7690   19.5140 C.ar  111  PHE111     -0.0003
    117  CE2       46.5240   31.9570   18.8020 C.ar  111  PHE111     -0.0003
    118  CZ        47.9180   31.8670   18.7780 C.ar  111  PHE111     -0.0000
    119  N         45.9250   37.0490   23.2360 N.am  112  ASP112     -0.1960
    120  CA        45.2710   38.2030   23.8420 C.3   112  ASP112      0.1840
    121  C         44.0390   38.5590   23.0270 C.2   112  ASP112      0.2622
    122  O         44.1390   38.8550   21.8370 O.2   112  ASP112     -0.2715
    123  CB        46.2340   39.3970   23.8870 C.3   112  ASP112      0.1450
    124  CG        45.6120   40.6340   24.5270 C.2   112  ASP112      0.3671
    125  OD1       44.7080   40.4640   25.3680 O.co2 112  ASP112     -0.2456
    126  OD2       46.0320   41.7720   24.2120 O.co2 112  ASP112     -0.2456
    127  N         42.8760   38.5180   23.6650 N.am  113  ALA113     -0.1963
    128  CA        41.6290   38.8330   22.9810 C.3   113  ALA113      0.1728
    129  C         41.5730   40.3030   22.5810 C.2   113  ALA113      0.2616
    130  O         40.9170   40.6690   21.6130 O.2   113  ALA113     -0.2715
    131  CB        40.4470   38.4910   23.8730 C.3   113  ALA113      0.0334
    132  N         42.2860   41.1340   23.3270 N.am  114  SER114     -0.1950
    133  CA        42.3080   42.5720   23.0920 C.3   114  SER114      0.1924
    134  C         42.6240   43.0000   21.6740 C.2   114  SER114      0.2314
    135  O         42.3030   44.1260   21.2810 O.2   114  SER114     -0.2863
    136  CB        43.2990   43.2430   24.0310 C.3   114  SER114      0.2116
    137  OG        43.3140   44.6340   23.7890 O.3   114  SER114     -0.2180
    138  N         33.1230   37.1960   28.4490 N.3   132  ASP132     -0.1225
    139  CA        33.0860   37.2200   29.9020 C.3   132  ASP132      0.1805
    140  C         34.4610   37.6930   30.3420 C.2   132  ASP132      0.2598
    141  O         35.1320   37.0270   31.1240 O.2   132  ASP132     -0.2718
    142  CB        32.8390   35.8050   30.4290 C.3   132  ASP132      0.1424
    143  CG        32.4510   35.7800   31.8840 C.2   132  ASP132      0.3668
    144  OD1       32.9760   36.6190   32.6450 O.co2 132  ASP132     -0.2456
    145  OD2       31.6330   34.9070   32.2580 O.co2 132  ASP132     -0.2456
    146  N         34.8910   38.8210   29.7880 N.am  133  ILE133     -0.1966
    147  CA        36.1820   39.4150   30.1220 C.3   133  ILE133      0.1727
    148  C         35.9140   40.5820   31.0550 C.2   133  ILE133      0.2616
    149  O         35.0180   41.3910   30.8100 O.2   133  ILE133     -0.2715
    150  CB        36.9200   39.9720   28.8860 C.3   133  ILE133      0.0290
    151  CG1       37.4980   38.8400   28.0470 C.3   133  ILE133      0.0022
    152  CG2       38.0460   40.8720   29.3220 C.3   133  ILE133      0.0023
    153  CD1       38.2250   39.3410   26.8170 C.3   133  ILE133      0.0001
    154  N         36.6930   40.6600   32.1250 N.am  134  ALA134     -0.1963
    155  CA        36.5450   41.7160   33.1040 C.3   134  ALA134      0.1728
    156  C         37.7240   42.6780   33.0320 C.2   134  ALA134      0.2616
    157  O         38.7390   42.4850   33.7040 O.2   134  ALA134     -0.2715
    158  CB        36.4390   41.1080   34.4860 C.3   134  ALA134      0.0334
    159  N         37.5840   43.7010   32.1920 N.am  135  GLN135     -0.1977
    160  CA        38.6090   44.7350   32.0130 C.3   135  GLN135      0.1601
    161  C         37.9660   46.0580   31.6120 C.2   135  GLN135      0.2287
    162  O         36.8630   46.0830   31.0750 O.2   135  GLN135     -0.2864
    163  CB        39.6230   44.3440   30.9320 C.3   135  GLN135      0.0394
    164  CG        40.5780   43.2170   31.2980 C.3   135  GLN135      0.0908
    165  CD        41.8070   43.2130   30.4100 C.2   135  GLN135      0.2608
    166  OE1       41.7080   43.4140   29.1940 O.2   135  GLN135     -0.2717
    167  NE2       42.9730   42.9850   31.0090 N.am  135  GLN135     -0.0878
    168  N         36.9350   45.5620   23.1920 N.3   141  ILE141     -0.1245
    169  CA        37.3410   44.2230   22.7840 C.3   141  ILE141      0.1561
    170  C         36.1470   43.4850   22.2180 C.2   141  ILE141      0.2260
    171  O         36.2640   42.7520   21.2340 O.2   141  ILE141     -0.2867
    172  CB        37.9180   43.4020   23.9680 C.3   141  ILE141      0.0252
    173  CG1       39.0690   44.1660   24.6180 C.3   141  ILE141      0.0019
    174  CG2       38.4500   42.0670   23.4750 C.3   141  ILE141      0.0019
    175  CD1       39.6640   43.4600   25.8060 C.3   141  ILE141      0.0001
    176  N         27.7560   41.5140   38.2880 N.3   201  HIS201     -0.1241
    177  CA        27.6510   41.3980   36.8350 C.3   201  HIS201      0.1621
    178  C         26.2280   41.6050   36.2860 C.2   201  HIS201      0.2264
    179  O         25.2520   41.5700   37.0320 O.2   201  HIS201     -0.2867
    180  CB        28.1610   40.0160   36.3980 C.3   201  HIS201      0.0745
    181  CG        29.6160   39.7890   36.6650 C.ar  201  HIS201      0.0817
    182  ND1       30.1430   39.7560   37.9380 N.ar  201  HIS201     -0.2268
    183  CD2       30.6560   39.5790   35.8210 C.ar  201  HIS201      0.1154
    184  CE1       31.4450   39.5360   37.8660 C.ar  201  HIS201      0.1986
    185  NE2       31.7820   39.4250   36.5930 N.ar  201  HIS201     -0.2212
@<TRIPOS>BOND
     1   118   117   ar
     2   118   116   ar
     3   117   115   ar
     4   116   114   ar
     5   115   113   ar
     6   114   113   ar
     7   113   112    1
     8   112   109    1
     9   171   170    2
    10   135   134    2
    11    72    71    1
    12   130   129    2
    13   134   133    1
    14   122   121    2
    15    21    22    1
    16   170   169    1
    17   129   128    1
    18   129   132   am
    19   109   108    1
    20   109   110    1
    21   169   168    1
    22   169   172    1
    23    71    73    1
    24    71    68    1
    25   128   127    1
    26   128   131    1
    27   121   127   am
    28   121   120    1
    29   133   132    1
    30   133   136    1
    31   119   110   am
    32   119   120    1
    33   110   111    2
    34    22    23    1
    35    22    25    1
    36   174   172    1
    37    67    68    1
    38    24    23    2
    39   137   136    1
    40    68    69    1
    41   120   123    1
    42   123   124    1
    43   172   173    1
    44    25    26    1
    45   126   124   ar
    46   124   125   ar
    47   173   175    1
    48    69    74   am
    49    69    70    2
    50    26    28   ar
    51    26    27   ar
    52    74    75    1
    53    28    30   ar
    54    27    29   ar
    55    77    76    2
    56    33    34    1
    57   153   151    1
    58    87    84    1
    59    87    88    1
    60    76    75    1
    61    76    83   am
    62    75    78    1
    63    41    38    1
    64    30    31   ar
    65    84    83    1
    66    84    85    1
    67    90    88   ar
    68    90    92   ar
    69    29    31   ar
    70    37    38    1
    71    37    35   am
    72   151   150    1
    73    88    89   ar
    74    78    79    1
    75    34    35    1
    76    38    39    1
    77    31    32    1
    78   138   139    1
    79    92    93   ar
    80    35    36    2
    81    86    85    2
    82    85    95   am
    83   150   152    1
    84   150   147    1
    85   166   165    2
    86    89    91   ar
    87    63    62    2
    88    79    80    1
    89    93    91   ar
    90    93    94    1
    91    39    42   am
    92    39    40    2
    93   146   147    1
    94   146   140   am
    95   139   140    1
    96   139   142    1
    97    95    96    1
    98    62    61    1
    99   147   148    1
   100    80    82   ar
   101    80    81   ar
   102    42    43    1
   103   140   141    2
   104   165   167   am
   105   165   164    1
   106   142   143    1
   107    66    64    1
   108   149   148    2
   109   163   164    1
   110   163   160    1
   111    45    44    2
   112   148   154   am
   113   162   161    2
   114    96    97    1
   115    96    99    1
   116    98    97    2
   117    64    61    1
   118    64    65    1
   119    61    60    1
   120   161   160    1
   121    43    44    1
   122    43    46    1
   123   143   145   ar
   124   143   144   ar
   125    44    47   am
   126    56    55    2
   127   160   159    1
   128    50    49    2
   129   154   155    1
   130   159   156   am
   131    60    55   am
   132    49    48    1
   133    55    54    1
   134    99   100    1
   135    53    54    1
   136   104   103    2
   137   103   102    1
   138   156   155    1
   139   156   157    2
   140    47    48    1
   141   155   158    1
   142   106   105    1
   143   106   107    1
   144    15    14    2
   145    54    57    1
   146    48    51    1
   147    14    13    1
   148   105   102    1
   149   107   101    1
   150   102   101    1
   151    16    13    1
   152    16    17    1
   153    13    12    1
   154    57    58    1
   155    57    59    1
   156    51    52    1
   157    18    17    1
   158    18    19    1
   159    20    19    1
   160   183   185   ar
   161   183   181   ar
   162   178   177    1
   163   178   179    2
   164   180   181    1
   165   180   177    1
   166     4     3    2
   167   185   184   ar
   168   181   182   ar
   169   177   176    1
   170     3     2    1
   171   184   182   ar
   172     2     5    1
   173     2     1    1
   174     5     6    1
   175    11     9    1
   176     8     9    2
   177     8     7    1
   178     9    10    1
   179     6     7    1
