@<TRIPOS>MOLECULE
tmp/1nt4B00.pdb
 153 143 0 0 0
SMALL
GASTEIGER

@<TRIPOS>ATOM
      1  N         99.1250  120.6840   64.2400 N.3    17  ARG17      -0.1231
      2  CA        98.5690  119.3600   64.0880 C.3    17  ARG17       0.1694
      3  C         98.5360  118.8320   65.5120 C.2    17  ARG17       0.2591
      4  O         99.2830  119.3150   66.3590 O.2    17  ARG17      -0.2718
      5  CB        99.4860  118.4710   63.2480 C.3    17  ARG17       0.0321
      6  CG        99.0540  117.0000   63.2590 C.3    17  ARG17       0.0489
      7  CD       100.1040  116.0650   62.6600 C.3    17  ARG17       0.2205
      8  NE        99.5870  114.7050   62.5390 N.pl3  17  ARG17      -0.0865
      9  CZ       100.3190  113.6500   62.2070 C.cat  17  ARG17       0.5346
     10  NH1       99.7590  112.4580   62.1200 N.pl3  17  ARG17       0.1354
     11  NH2      101.6120  113.7800   61.9730 N.pl3  17  ARG17       0.1354
     12  N         97.6660  117.8610   65.7710 N.am   18  ALA18      -0.1980
     13  CA        97.5420  117.2520   67.0870 C.3    18  ALA18       0.1597
     14  C         98.8930  116.6390   67.4290 C.2    18  ALA18       0.2287
     15  O         99.6690  116.3580   66.5270 O.2    18  ALA18      -0.2864
     16  CB        96.4740  116.1630   67.0500 C.3    18  ALA18       0.0319
     17  N         99.2700  110.7450   69.3830 N.3    21  ARG21      -0.1245
     18  CA        97.9740  110.1440   69.7200 C.3    21  ARG21       0.1563
     19  C         98.0880  108.6300   69.5470 C.2    21  ARG21       0.2260
     20  O         99.0820  108.1460   68.9900 O.2    21  ARG21      -0.2867
     21  CB        96.9130  110.6310   68.7420 C.3    21  ARG21       0.0307
     22  CG        97.1940  110.1360   67.3220 C.3    21  ARG21       0.0489
     23  CD        96.1670  110.6230   66.3250 C.3    21  ARG21       0.2205
     24  NE        96.6100  110.4080   64.9470 N.pl3  21  ARG21      -0.0865
     25  CZ        96.7000  109.2180   64.3600 C.cat  21  ARG21       0.5346
     26  NH1       96.3730  108.1150   65.0270 N.pl3  21  ARG21       0.1354
     27  NH2       97.1220  109.1350   63.1040 N.pl3  21  ARG21       0.1354
     28  N         94.4930  105.3630   65.2220 N.3    24  LEU24      -0.1245
     29  CA        93.0520  105.4530   64.9880 C.3    24  LEU24       0.1561
     30  C         92.3180  104.1300   65.1580 C.2    24  LEU24       0.2260
     31  O         92.7760  103.0820   64.7020 O.2    24  LEU24      -0.2867
     32  CB        92.7820  106.0350   63.5930 C.3    24  LEU24       0.0270
     33  CG        92.6120  107.5540   63.4390 C.3    24  LEU24       0.0019
     34  CD1       93.2670  108.3080   64.5900 C.3    24  LEU24       0.0001
     35  CD2       93.1980  107.9770   62.0980 C.3    24  LEU24       0.0001
     36  N         87.6480  117.6750   68.5260 N.3    92  LEU92      -0.1245
     37  CA        87.9390  116.2790   68.8130 C.3    92  LEU92       0.1561
     38  C         88.7380  116.2870   70.1120 C.2    92  LEU92       0.2260
     39  O         89.3120  117.3120   70.4740 O.2    92  LEU92      -0.2867
     40  CB        88.7570  115.6260   67.6870 C.3    92  LEU92       0.0270
     41  CG        88.0800  115.3890   66.3310 C.3    92  LEU92       0.0019
     42  CD1       88.8420  114.3190   65.6010 C.3    92  LEU92       0.0001
     43  CD2       86.6360  114.9340   66.5000 C.3    92  LEU92       0.0001
     44  N         91.6200  114.6310   70.9620 N.3    94  ARG94      -0.1245
     45  CA        93.0510  114.8390   70.7530 C.3    94  ARG94       0.1563
     46  C         93.3850  116.2800   70.3680 C.2    94  ARG94       0.2260
     47  O         94.4010  116.8140   70.7910 O.2    94  ARG94      -0.2867
     48  CB        93.6190  113.8680   69.6960 C.3    94  ARG94       0.0307
     49  CG        93.1840  114.1040   68.2640 C.3    94  ARG94       0.0489
     50  CD        94.1560  113.3970   67.3190 C.3    94  ARG94       0.2205
     51  NE        93.6540  113.2060   65.9540 N.pl3  94  ARG94      -0.0865
     52  CZ        92.6580  112.3850   65.6150 C.cat  94  ARG94       0.5346
     53  NH1       92.0300  111.6670   66.5370 N.pl3  94  ARG94       0.1354
     54  NH2       92.3010  112.2650   64.3440 N.pl3  94  ARG94       0.1354
     55  N         83.4390  116.3770   63.9340 N.3   123  MET123     -0.1245
     56  CA        84.2820  117.2530   63.1300 C.3   123  MET123      0.1570
     57  C         83.7680  118.6700   62.9370 C.2   123  MET123      0.2261
     58  O         82.5890  118.8900   62.6570 O.2   123  MET123     -0.2867
     59  CB        84.5040  116.6280   61.7590 C.3   123  MET123      0.0387
     60  CG        85.3210  115.3440   61.7860 C.3   123  MET123      0.0595
     61  SD        87.0230  115.6440   62.2740 S.3   123  MET123     -0.1393
     62  CE        87.3610  117.1760   61.3200 C.3   123  MET123      0.0692
     63  N         88.4520  117.7930   56.6550 N.3   129  PRO129     -0.2116
     64  CA        89.0010  117.6810   55.3050 C.3   129  PRO129      0.1372
     65  C         88.0720  116.9070   54.3660 C.2   129  PRO129      0.2244
     66  O         88.4460  115.8800   53.8260 O.2   129  PRO129     -0.2868
     67  CB        90.3350  116.9800   55.5510 C.3   129  PRO129      0.0268
     68  CG        89.9830  116.0100   56.6290 C.3   129  PRO129      0.0207
     69  CD        89.0840  116.8130   57.5620 C.3   129  PRO129      0.0892
     70  N         85.8350  112.5450   53.6680 N.3   196  GLU196     -0.1245
     71  CA        87.2250  112.7340   53.2820 C.3   196  GLU196      0.1567
     72  C         87.5290  111.8910   52.0600 C.2   196  GLU196      0.2260
     73  O         86.9730  110.8130   51.8860 O.2   196  GLU196     -0.2867
     74  CB        88.1520  112.3360   54.4190 C.3   196  GLU196      0.0388
     75  CG        87.8390  113.0200   55.7300 C.3   196  GLU196      0.1160
     76  CD        88.8800  112.7110   56.7670 C.2   196  GLU196      0.3649
     77  OE1       88.7050  113.1070   57.9400 O.co2 196  GLU196     -0.2457
     78  OE2       89.8810  112.0660   56.3910 O.co2 196  GLU196     -0.2457
     79  N         99.4060  102.5130   55.0950 N.3   207  ASN207     -0.1240
     80  CA        99.3720  103.7370   55.8840 C.3   207  ASN207      0.1653
     81  C         98.9810  103.4610   57.3370 C.2   207  ASN207      0.2266
     82  O         99.5590  104.0180   58.2630 O.2   207  ASN207     -0.2867
     83  CB        98.3800  104.7230   55.2690 C.3   207  ASN207      0.1155
     84  CG        98.4310  106.0790   55.9310 C.2   207  ASN207      0.2627
     85  OD1       99.3890  106.8290   55.7570 O.2   207  ASN207     -0.2716
     86  ND2       97.3990  106.3980   56.7060 N.am  207  ASN207     -0.0877
     87  N        101.6210  103.9670   60.0740 N.3   211  ASP211     -0.1239
     88  CA       101.2050  105.0600   60.9350 C.3   211  ASP211      0.1674
     89  C        101.2900  104.5510   62.3730 C.2   211  ASP211      0.2266
     90  O        101.7980  105.2370   63.2600 O.2   211  ASP211     -0.2867
     91  CB        99.7690  105.4580   60.6260 C.3   211  ASP211      0.1410
     92  CG        99.3340  106.7010   61.3660 C.2   211  ASP211      0.3668
     93  OD1       98.1210  106.8160   61.6350 O.co2 211  ASP211     -0.2456
     94  OD2      100.1900  107.5650   61.6680 O.co2 211  ASP211     -0.2456
     95  N        100.3060  107.9190   51.1200 N.3   247  TYR247     -0.1241
     96  CA        98.8840  107.8760   51.4340 C.3   247  TYR247      0.1605
     97  C         98.3990  109.3170   51.4600 C.2   247  TYR247      0.2264
     98  O         97.4840  109.7080   50.7240 O.2   247  TYR247     -0.2867
     99  CB        98.6950  107.2630   52.8120 C.3   247  TYR247      0.0534
    100  CG        97.2730  107.2290   53.3070 C.ar  247  TYR247     -0.0201
    101  CD1       96.4370  106.1570   53.0160 C.ar  247  TYR247     -0.0009
    102  CD2       96.7740  108.2540   54.0980 C.ar  247  TYR247     -0.0009
    103  CE1       95.1500  106.1050   53.5040 C.ar  247  TYR247      0.0417
    104  CE2       95.4830  108.2130   54.5920 C.ar  247  TYR247      0.0417
    105  CZ        94.6730  107.1380   54.2970 C.ar  247  TYR247      0.1957
    106  OH        93.3860  107.0920   54.8070 O.3   247  TYR247     -0.2866
    107  N         95.3770  113.9600   49.8070 N.3   252  PHE252     -0.1241
    108  CA        95.2550  115.3920   50.0150 C.3   252  PHE252      0.1605
    109  C         96.1310  116.3610   49.2260 C.2   252  PHE252      0.2264
    110  O         95.8430  117.5590   49.1940 O.2   252  PHE252     -0.2867
    111  CB        95.4220  115.6730   51.5050 C.3   252  PHE252      0.0534
    112  CG        94.5210  114.8470   52.3730 C.ar  252  PHE252     -0.0203
    113  CD1       93.1530  115.0670   52.3790 C.ar  252  PHE252     -0.0042
    114  CD2       95.0460  113.8500   53.1880 C.ar  252  PHE252     -0.0042
    115  CE1       92.3160  114.3070   53.1850 C.ar  252  PHE252     -0.0003
    116  CE2       94.2150  113.0840   53.9980 C.ar  252  PHE252     -0.0003
    117  CZ        92.8470  113.3130   53.9980 C.ar  252  PHE252     -0.0000
    118  N         94.5680  121.4450   64.2060 N.3   288  GLY288     -0.1210
    119  CA        93.8200  120.4940   63.4080 C.3   288  GLY288      0.1956
    120  C         94.4910  119.1460   63.1820 C.2   288  GLY288      0.2612
    121  O         95.0720  118.5460   64.1000 O.2   288  GLY288     -0.2717
    122  N         94.4200  118.6790   61.9370 N.am  289  HIS289     -0.1961
    123  CA        94.9720  117.3820   61.5670 C.3   289  HIS289      0.1787
    124  C         96.0020  117.4670   60.4330 C.2   289  HIS289      0.2620
    125  O         96.0740  118.4630   59.7200 O.2   289  HIS289     -0.2715
    126  CB        93.7980  116.4660   61.2120 C.3   289  HIS289      0.0785
    127  CG        92.7110  116.4720   62.2480 C.ar  289  HIS289      0.0821
    128  ND1       92.7780  115.7270   63.4070 N.ar  289  HIS289     -0.2267
    129  CD2       91.5650  117.1910   62.3320 C.ar  289  HIS289      0.1154
    130  CE1       91.7240  115.9870   64.1610 C.ar  289  HIS289      0.1986
    131  NE2       90.9720  116.8750   63.5310 N.ar  289  HIS289     -0.2212
    132  N         96.8120  116.4300   60.2690 N.am  290  ASP290     -0.1957
    133  CA        97.8300  116.4700   59.2240 C.3   290  ASP290      0.1840
    134  C         97.2550  116.6340   57.8120 C.2   290  ASP290      0.2622
    135  O         97.9210  117.1660   56.9170 O.2   290  ASP290     -0.2715
    136  CB        98.7280  115.2230   59.2870 C.3   290  ASP290      0.1450
    137  CG        97.9840  113.9410   58.9980 C.2   290  ASP290      0.3671
    138  OD1       97.2900  113.8590   57.9630 O.co2 290  ASP290     -0.2456
    139  OD2       98.1090  113.0000   59.8050 O.co2 290  ASP290     -0.2456
    140  N         96.0160  116.1910   57.6150 N.am  291  SER291     -0.1950
    141  CA        95.3780  116.3020   56.3130 C.3   291  SER291      0.1924
    142  C         95.0200  117.7560   56.0130 C.2   291  SER291      0.2314
    143  O         94.7540  118.1220   54.8620 O.2   291  SER291     -0.2863
    144  CB        94.1300  115.4100   56.2650 C.3   291  SER291      0.2116
    145  OG        93.3960  115.4740   57.4770 O.3   291  SER291     -0.2180
    146  N        104.0840  114.8130   63.7940 N.3   316  ILE316     -0.1245
    147  CA       103.0370  114.7010   64.7860 C.3   316  ILE316      0.1561
    148  C        102.6570  116.0190   65.4420 C.2   316  ILE316      0.2260
    149  O        101.4880  116.3760   65.4330 O.2   316  ILE316     -0.2867
    150  CB       103.3910  113.6860   65.8850 C.3   316  ILE316      0.0252
    151  CG1      102.1070  113.1460   66.5160 C.3   316  ILE316      0.0019
    152  CG2      104.1840  114.3400   66.9770 C.3   316  ILE316      0.0019
    153  CD1      101.2420  112.3180   65.5740 C.3   316  ILE316      0.0001
@<TRIPOS>BOND
     1   110   109    2
     2   109   108    1
     3   107   108    1
     4   108   111    1
     5    98    97    2
     6    95    96    1
     7    96    97    1
     8    96    99    1
     9   111   112    1
    10    73    72    2
    11    72    71    1
    12   112   113   ar
    13   112   114   ar
    14   113   115   ar
    15    99   100    1
    16   101   100   ar
    17   101   103   ar
    18   115   117   ar
    19   114   116   ar
    20    71    70    1
    21    71    74    1
    22   100   102   ar
    23   103   105   ar
    24    66    65    2
    25   116   117   ar
    26   102   104   ar
    27   105   104   ar
    28   105   106    1
    29    65    64    1
    30    74    75    1
    31   143   142    2
    32    79    80    1
    33    83    80    1
    34    83    84    1
    35    64    67    1
    36    64    63    1
    37    67    68    1
    38    75    76    1
    39    85    84    2
    40    80    81    1
    41    84    86   am
    42   142   141    1
    43   144   141    1
    44   144   145    1
    45   141   140    1
    46    78    76   ar
    47    68    69    1
    48    63    69    1
    49    76    77   ar
    50   135   134    2
    51    81    82    2
    52   140   134   am
    53   134   133    1
    54   138   137   ar
    55   137   136    1
    56   137   139   ar
    57   133   136    1
    58   133   132    1
    59   125   124    2
    60    87    88    1
    61   132   124   am
    62   124   123    1
    63    91    88    1
    64    91    92    1
    65    88    89    1
    66   126   123    1
    67   126   127    1
    68    62    61    1
    69    92    93   ar
    70    92    94   ar
    71   123   122    1
    72    59    60    1
    73    59    56    1
    74    60    61    1
    75   122   120   am
    76    11     9    1
    77    35    33    1
    78    10     9    1
    79     9     8    2
    80   127   129   ar
    81   127   128   ar
    82   129   131   ar
    83    89    90    2
    84     8     7    1
    85    58    57    2
    86     7     6    1
    87    57    56    1
    88    27    25    1
    89    56    55    1
    90   120   119    1
    91   120   121    2
    92     5     6    1
    93     5     2    1
    94   128   130   ar
    95   119   118    1
    96    33    32    1
    97    33    34    1
    98   131   130   ar
    99    32    29    1
   100   146   147    1
   101     2     1    1
   102     2     3    1
   103    54    52    1
   104    25    24    2
   105    25    26    1
   106    31    30    2
   107   147   148    1
   108   147   150    1
   109    24    23    1
   110    29    30    1
   111    29    28    1
   112   149   148    2
   113     3    12   am
   114     3     4    2
   115   153   151    1
   116    42    41    1
   117    52    51    2
   118    52    53    1
   119    12    13    1
   120   150   151    1
   121   150   152    1
   122    51    50    1
   123    23    22    1
   124    41    43    1
   125    41    40    1
   126    15    14    2
   127    16    13    1
   128    13    14    1
   129    50    49    1
   130    22    21    1
   131    40    37    1
   132    49    48    1
   133    36    37    1
   134    21    18    1
   135    37    38    1
   136    20    19    2
   137    17    18    1
   138    19    18    1
   139    48    45    1
   140    38    39    2
   141    46    45    1
   142    46    47    2
   143    45    44    1
