@<TRIPOS>MOLECULE
tmp/1ntfA00.pdb
 228 221 0 0 0
SMALL
GASTEIGER

@<TRIPOS>ATOM
      1  N          8.9400   13.2360   14.0850 N.3    12  TRP12      -0.1241
      2  CA        10.1830   12.5670   13.9010 C.3    12  TRP12       0.1605
      3  C         11.2880   13.5730   14.0040 C.2    12  TRP12       0.2264
      4  O         11.3180   14.5750   13.2520 O.2    12  TRP12      -0.2867
      5  CB        10.1950   11.9920   12.5280 C.3    12  TRP12       0.0550
      6  CG        11.2930   11.0580   12.1820 C.ar   12  TRP12       0.0003
      7  CD1       12.2960   10.5430   12.9660 C.ar   12  TRP12       0.0946
      8  CD2       11.4280   10.4600   10.9170 C.ar   12  TRP12       0.0152
      9  NE1       13.0750    9.6730   12.2220 N.ar   12  TRP12      -0.2442
     10  CE2       12.5490    9.5890   10.9670 C.ar   12  TRP12       0.0810
     11  CE3       10.6840   10.5450    9.7330 C.ar   12  TRP12       0.0012
     12  CZ2       12.9560    8.8120    9.8430 C.ar   12  TRP12       0.0191
     13  CZ3       11.0890    9.7990    8.6280 C.ar   12  TRP12       0.0001
     14  CH2       12.2100    8.9490    8.6970 C.ar   12  TRP12       0.0015
     15  N         14.1730   13.9670   12.6960 N.3    14  SER14      -0.1202
     16  CA        14.7570   13.3490   11.5240 C.3    14  SER14       0.2020
     17  C         16.1100   13.9600   11.1290 C.2    14  SER14       0.2619
     18  O         16.7860   13.3980   10.2480 O.2    14  SER14      -0.2717
     19  CB        13.8100   13.4810   10.3770 C.3    14  SER14       0.2103
     20  OG        13.5730   14.8540   10.1660 O.3    14  SER14      -0.2182
     21  N         16.5240   15.0330   11.7850 N.am   15  GLY15      -0.1942
     22  CA        17.8710   15.5300   11.6250 C.3    15  GLY15       0.2014
     23  C         18.0640   16.0680   10.1950 C.2    15  GLY15       0.2639
     24  O         17.3800   17.0230    9.7750 O.2    15  GLY15      -0.2714
     25  N         18.9470   15.4010    9.4400 N.am   16  HIS16      -0.1959
     26  CA        19.3640   15.8210    8.0970 C.3    16  HIS16       0.1787
     27  C         18.6940   14.9310    7.0390 C.2    16  HIS16       0.2620
     28  O         18.8280   15.1330    5.8540 O.2    16  HIS16      -0.2715
     29  CB        20.9310   15.7220    7.9610 C.3    16  HIS16       0.0785
     30  CG        21.6990   16.8270    8.6550 C.ar   16  HIS16       0.0821
     31  ND1       22.2480   17.9100    7.9780 N.ar   16  HIS16      -0.2267
     32  CD2       22.0490   16.9950    9.9630 C.ar   16  HIS16       0.1154
     33  CE1       22.8850   18.6960    8.8380 C.ar   16  HIS16       0.1986
     34  NE2       22.7750   18.1670   10.0500 N.ar   16  HIS16      -0.2212
     35  N         17.9160   13.9610    7.4910 N.am   17  GLU17      -0.1963
     36  CA        17.3680   12.9480    6.6220 C.3    17  GLU17       0.1733
     37  C         16.2130   13.5270    5.7970 C.2    17  GLU17       0.2616
     38  O         15.4340   14.3620    6.2900 O.2    17  GLU17      -0.2715
     39  CB        16.8730   11.7910    7.4560 C.3    17  GLU17       0.0429
     40  CG        16.6160   10.5200    6.6920 C.3    17  GLU17       0.1163
     41  CD        17.8520    9.9960    5.9740 C.2    17  GLU17       0.3649
     42  OE1       17.6140    9.2250    4.9910 O.co2  17  GLU17      -0.2457
     43  OE2       19.0170   10.3530    6.3770 O.co2  17  GLU17      -0.2457
     44  N         16.1000   13.0310    4.5510 N.am   18  ARG18      -0.1960
     45  CA        15.0290   13.4470    3.6540 C.3    18  ARG18       0.1772
     46  C         13.7860   12.5860    3.8850 C.2    18  ARG18       0.2619
     47  O         13.8730   11.4470    4.3530 O.2    18  ARG18      -0.2715
     48  CB        15.4630   13.4520    2.1650 C.3    18  ARG18       0.0603
     49  CG        16.3980   12.2820    1.6840 C.2    18  ARG18       0.0163
     50  CD        17.0570   12.4540    0.2660 C.2    18  ARG18       0.1886
     51  NE        16.9880   13.8170   -0.3140 N.pl3  18  ARG18      -0.0578
     52  CZ        17.8660   14.8290   -0.1230 C.cat  18  ARG18       0.5393
     53  NH1       18.9180   14.6900    0.6850 N.pl3  18  ARG18       0.1358
     54  NH2       17.6730   16.0050   -0.7440 N.pl3  18  ARG18       0.1358
     55  N         12.6290   13.1460    3.5360 N.am   19  ALA19      -0.1977
     56  CA        11.3640   12.4250    3.5530 C.3    19  ALA19       0.1597
     57  C         11.5170   11.0710    2.8420 C.2    19  ALA19       0.2287
     58  O         12.0170   11.0210    1.7060 O.2    19  ALA19      -0.2864
     59  CB        10.2370   13.3090    2.8950 C.3    19  ALA19       0.0319
     60  N          4.0480    5.9170    7.2990 N.3    26  LEU26      -0.1245
     61  CA         4.4460    7.0190    8.2010 C.3    26  LEU26       0.1561
     62  C          3.2130    7.6970    8.7810 C.2    26  LEU26       0.2260
     63  O          3.1860    8.0770    9.9560 O.2    26  LEU26      -0.2867
     64  CB         5.2270    8.0620    7.4410 C.3    26  LEU26       0.0270
     65  CG         5.9680    9.1220    8.2380 C.3    26  LEU26       0.0019
     66  CD1        7.0310    8.4760    9.1600 C.3    26  LEU26       0.0001
     67  CD2        6.6110   10.1950    7.3290 C.3    26  LEU26       0.0001
     68  N          1.9010   16.5530   11.0590 N.3    40  VAL40      -0.1245
     69  CA         3.2410   16.0380   10.9270 C.3    40  VAL40       0.1561
     70  C          4.2190   17.0570   11.4590 C.2    40  VAL40       0.2260
     71  O          4.1960   18.2310   11.0640 O.2    40  VAL40      -0.2867
     72  CB         3.5610   15.8160    9.3850 C.3    40  VAL40       0.0252
     73  CG1        4.9030   15.1360    9.1580 C.3    40  VAL40       0.0019
     74  CG2        2.4240   14.9480    8.7650 C.3    40  VAL40       0.0019
     75  N          8.3080   17.6710   12.3160 N.3    42  VAL42      -0.1245
     76  CA         9.6780   17.2370   12.2060 C.3    42  VAL42       0.1561
     77  C         10.6390   18.1850   12.9190 C.2    42  VAL42       0.2260
     78  O         10.3610   19.4020   13.0990 O.2    42  VAL42      -0.2867
     79  CB        10.1740   17.0340   10.7460 C.3    42  VAL42       0.0252
     80  CG1        9.5880   15.8120   10.1180 C.3    42  VAL42       0.0019
     81  CG2        9.9560   18.2920    9.9270 C.3    42  VAL42       0.0019
     82  N         17.7030   20.0960   10.9880 N.3    45  PHE45      -0.1227
     83  CA        18.6640   21.1980   10.6830 C.3    45  PHE45       0.1736
     84  C         18.4860   21.6660    9.2500 C.2    45  PHE45       0.2596
     85  O         18.3690   20.8460    8.3680 O.2    45  PHE45      -0.2718
     86  CB        20.1110   20.7230   10.8950 C.3    45  PHE45       0.0547
     87  CG        20.3560   20.1260   12.2490 C.ar   45  PHE45      -0.0202
     88  CD1       20.4290   18.7350   12.4180 C.ar   45  PHE45      -0.0042
     89  CD2       20.4900   20.9620   13.3840 C.ar   45  PHE45      -0.0042
     90  CE1       20.6550   18.1690   13.7120 C.ar   45  PHE45      -0.0003
     91  CE2       20.7120   20.4070   14.6850 C.ar   45  PHE45      -0.0003
     92  CZ        20.7900   19.0220   14.8390 C.ar   45  PHE45      -0.0000
     93  N         18.4500   22.9840    9.0310 N.am   46  GLY46      -0.1942
     94  CA        18.5020   23.5500    7.6820 C.3    46  GLY46       0.2014
     95  C         17.2810   23.4490    6.7800 C.2    46  GLY46       0.2639
     96  O         17.4310   23.4390    5.5400 O.2    46  GLY46      -0.2714
     97  N         16.0810   23.3540    7.3580 N.am   47  PHE47      -0.1959
     98  CA        14.8860   23.1940    6.5390 C.3    47  PHE47       0.1771
     99  C         14.6450   24.4450    5.6870 C.2    47  PHE47       0.2619
    100  O         14.2880   24.3200    4.5150 O.2    47  PHE47      -0.2715
    101  CB        13.6660   22.9700    7.3970 C.3    47  PHE47       0.0574
    102  CG        13.6880   21.7120    8.2240 C.ar   47  PHE47      -0.0200
    103  CD1       13.2830   21.7510    9.5260 C.ar   47  PHE47      -0.0042
    104  CD2       14.0250   20.4910    7.6790 C.ar   47  PHE47      -0.0042
    105  CE1       13.2040   20.5970   10.2670 C.ar   47  PHE47      -0.0003
    106  CE2       13.9700   19.3060    8.4350 C.ar   47  PHE47      -0.0003
    107  CZ        13.5840   19.3730    9.7310 C.ar   47  PHE47      -0.0000
    108  N         14.7990   25.6320    6.3000 N.am   48  GLN48      -0.1977
    109  CA        14.5800   26.9060    5.6120 C.3    48  GLN48       0.1601
    110  C         15.6430   27.1560    4.5420 C.2    48  GLN48       0.2287
    111  O         15.3430   27.1900    3.3540 O.2    48  GLN48      -0.2864
    112  CB        14.5060   28.0710    6.6100 C.3    48  GLN48       0.0394
    113  CG        13.1880   28.8740    6.5320 C.3    48  GLN48       0.0908
    114  CD        13.1870   30.1100    7.4580 C.2    48  GLN48       0.2608
    115  OE1       13.7750   30.0940    8.5560 O.2    48  GLN48      -0.2717
    116  NE2       12.5290   31.1840    7.0070 N.am   48  GLN48      -0.0878
    117  N         17.3630   25.1330    3.1330 N.3    50  ASP50      -0.1239
    118  CA        17.1870   24.0380    2.1710 C.3    50  ASP50       0.1674
    119  C         18.3600   23.8950    1.1660 C.2    50  ASP50       0.2266
    120  O         18.1440   23.8670   -0.0470 O.2    50  ASP50      -0.2867
    121  CB        15.8600   24.2090    1.4090 C.3    50  ASP50       0.1410
    122  CG        15.3980   22.9270    0.7560 C.2    50  ASP50       0.3668
    123  OD1       14.3910   22.9620    0.0130 O.co2  50  ASP50      -0.2456
    124  OD2       15.9830   21.8320    0.9080 O.co2  50  ASP50      -0.2456
    125  N         20.0640   21.1830    0.2880 N.3    52  PRO52      -0.2116
    126  CA        19.7960   19.9980   -0.5720 C.3    52  PRO52       0.1372
    127  C         18.6030   20.0820   -1.5510 C.2    52  PRO52       0.2244
    128  O         18.4640   19.2000   -2.3930 O.2    52  PRO52      -0.2868
    129  CB        19.5140   18.8660    0.4420 C.3    52  PRO52       0.0268
    130  CG        19.2780   19.5060    1.7630 C.3    52  PRO52       0.0207
    131  CD        19.8560   20.8790    1.7220 C.3    52  PRO52       0.0892
    132  N         15.3270   19.7030   -0.9630 N.3    54  GLN54      -0.1231
    133  CA        14.3390   18.6650   -0.6320 C.3    54  GLN54       0.1698
    134  C         12.9000   19.1980   -0.6200 C.2    54  GLN54       0.2593
    135  O         11.9620   18.4540   -0.8390 O.2    54  GLN54      -0.2718
    136  CB        14.6530   18.0910    0.7560 C.3    54  GLN54       0.0381
    137  CG        13.5940   17.1330    1.3400 C.3    54  GLN54       0.0905
    138  CD        13.4270   15.8870    0.4970 C.2    54  GLN54       0.2608
    139  OE1       14.3220   15.5430   -0.2970 O.2    54  GLN54      -0.2717
    140  NE2       12.2770   15.2340    0.6230 N.am   54  GLN54      -0.0878
    141  N         12.7370   20.4610   -0.2680 N.am   55  GLY55      -0.1943
    142  CA        11.4180   21.0980   -0.2510 C.3    55  GLY55       0.1998
    143  C         10.4900   20.7000   -1.4000 C.2    55  GLY55       0.2480
    144  O          9.4030   20.2510   -1.1610 O.2    55  GLY55      -0.2729
    145  N         10.9140   20.8710   -2.6550 N.am   56  PRO56      -0.2726
    146  CA        10.0590   20.5120   -3.7860 C.3    56  PRO56       0.1402
    147  C          9.7080   19.0560   -3.8150 C.2    56  PRO56       0.2269
    148  O          8.6210   18.7850   -4.2810 O.2    56  PRO56      -0.2865
    149  CB        10.8880   20.9030   -5.0340 C.3    56  PRO56       0.0296
    150  CG        12.0200   21.6500   -4.5730 C.3    56  PRO56       0.0237
    151  CD        12.1910   21.4650   -3.0840 C.3    56  PRO56       0.0939
    152  N          9.2590   17.0630   -1.0150 N.3    58  CYS58      -0.1221
    153  CA         8.2720   16.9440    0.0710 C.3    58  CYS58       0.1808
    154  C          6.8740   17.3010   -0.4190 C.2    58  CYS58       0.2601
    155  O          5.9170   16.5110   -0.2890 O.2    58  CYS58      -0.2717
    156  CB         8.6320   17.8960    1.2130 C.3    58  CYS58       0.0970
    157  SG        10.0620   17.2980    2.1480 S.3    58  CYS58      -0.0800
    158  N          6.8180   18.4730   -1.0560 N.am   59  VAL59      -0.1979
    159  CA         5.5590   19.0250   -1.5540 C.3    59  VAL59       0.1595
    160  C          4.9760   18.0190   -2.5140 C.2    59  VAL59       0.2287
    161  O          3.8910   17.5290   -2.2850 O.2    59  VAL59      -0.2864
    162  CB         5.7250   20.3630   -2.2380 C.3    59  VAL59       0.0276
    163  CG1        4.3650   20.8410   -2.8050 C.3    59  VAL59       0.0022
    164  CG2        6.2690   21.4040   -1.2840 C.3    59  VAL59       0.0022
    165  N          4.0090   14.4360   -0.7190 N.3    62  PHE62      -0.1227
    166  CA         2.9120   14.5380    0.2240 C.3    62  PHE62       0.1736
    167  C          1.6260   14.9750   -0.5000 C.2    62  PHE62       0.2595
    168  O          0.5460   14.3730   -0.2660 O.2    62  PHE62      -0.2718
    169  CB         3.2460   15.5050    1.3520 C.3    62  PHE62       0.0547
    170  CG         4.0810   14.8920    2.4430 C.ar   62  PHE62      -0.0202
    171  CD1        5.4940   15.0070    2.4080 C.ar   62  PHE62      -0.0042
    172  CD2        3.4640   14.1560    3.4700 C.ar   62  PHE62      -0.0042
    173  CE1        6.2940   14.4120    3.4260 C.ar   62  PHE62      -0.0003
    174  CE2        4.2260   13.5650    4.4980 C.ar   62  PHE62      -0.0003
    175  CZ         5.6440   13.6970    4.4950 C.ar   62  PHE62      -0.0000
    176  N          1.7550   15.9860   -1.3750 N.am   63  GLN63      -0.1979
    177  CA         0.5720   16.5630   -2.0780 C.3    63  GLN63       0.1601
    178  C         -0.0620   15.5190   -2.9910 C.2    63  GLN63       0.2287
    179  O         -1.2690   15.3480   -2.9600 O.2    63  GLN63      -0.2864
    180  CB         0.8870   17.9130   -2.7860 C.3    63  GLN63       0.0394
    181  CG        -0.1100   19.0590   -2.4380 C.3    63  GLN63       0.0908
    182  CD         0.1580   19.7960   -1.0910 C.2    63  GLN63       0.2608
    183  OE1        0.8410   20.8590   -1.0600 O.2    63  GLN63      -0.2717
    184  NE2       -0.4090   19.2730    0.0030 N.am   63  GLN63      -0.0878
    185  N         -4.2120   20.8110    2.5040 N.3    73  LYS73      -0.1245
    186  CA        -3.2410   21.3190    3.4960 C.3    73  LYS73       0.1561
    187  C         -3.7330   22.6340    4.0740 C.2    73  LYS73       0.2260
    188  O         -3.9400   23.5950    3.3550 O.2    73  LYS73      -0.2867
    189  CB        -1.8790   21.4960    2.8800 C.3    73  LYS73       0.0271
    190  CG        -0.8720   22.2650    3.7230 C.3    73  LYS73       0.0035
    191  CD         0.4700   22.2520    3.0750 C.3    73  LYS73       0.0206
    192  CE         0.5210   23.2820    1.8820 C.3    73  LYS73       0.1093
    193  NZ         1.8630   23.2450    1.1710 N.3    73  LYS73      -0.1314
    194  N          1.5870   24.6630    6.2190 N.3    76  ASN76      -0.1240
    195  CA         2.9440   24.1700    6.4440 C.3    76  ASN76       0.1653
    196  C          3.7200   25.3160    6.9560 C.2    76  ASN76       0.2266
    197  O          3.6480   26.4390    6.3990 O.2    76  ASN76      -0.2867
    198  CB         3.6020   23.6570    5.1740 C.3    76  ASN76       0.1155
    199  CG         5.1060   23.3520    5.3490 C.2    76  ASN76       0.2627
    200  OD1        5.9360   24.1080    4.8870 O.2    76  ASN76      -0.2716
    201  ND2        5.4440   22.2670    6.0510 N.am   76  ASN76      -0.0877
    202  N          7.7070   26.1740    8.4060 N.3    78  ILE78      -0.1245
    203  CA         9.0580   25.6940    8.6850 C.3    78  ILE78       0.1561
    204  C          9.9470   26.8070    9.2130 C.2    78  ILE78       0.2260
    205  O          9.7720   27.9670    8.8480 O.2    78  ILE78      -0.2867
    206  CB         9.7020   25.0600    7.4720 C.3    78  ILE78       0.0252
    207  CG1        9.7340   26.0600    6.3070 C.3    78  ILE78       0.0019
    208  CG2        8.9090   23.8160    7.0030 C.3    78  ILE78       0.0019
    209  CD1       10.5840   25.5530    5.1550 C.3    78  ILE78       0.0001
    210  N          3.1390   20.5810    9.6710 N.3    85  THR85      -0.1218
    211  CA         2.0810   20.5250    8.6560 C.3    85  THR85       0.1862
    212  C          0.8130   19.9470    9.1720 C.2    85  THR85       0.2287
    213  O          0.8250   18.9390    9.8860 O.2    85  THR85      -0.2866
    214  CB         2.5440   19.6630    7.4790 C.3    85  THR85       0.1770
    215  OG1        3.8360   20.1660    7.0440 O.3    85  THR85      -0.2211
    216  CG2        1.6320   19.8770    6.2990 C.3    85  THR85       0.0375
    217  N         -3.0600   18.7950    7.8090 N.3    87  TYR87      -0.1241
    218  CA        -3.9770   18.4670    6.7160 C.3    87  TYR87       0.1605
    219  C         -5.3460   18.1570    7.2990 C.2    87  TYR87       0.2264
    220  O         -5.4660   17.5310    8.3720 O.2    87  TYR87      -0.2867
    221  CB        -3.4800   17.2680    5.9390 C.3    87  TYR87       0.0534
    222  CG        -2.1360   17.3720    5.3140 C.ar   87  TYR87      -0.0201
    223  CD1       -0.9860   16.9130    5.9870 C.ar   87  TYR87      -0.0009
    224  CD2       -1.9520   17.9130    4.0350 C.ar   87  TYR87      -0.0009
    225  CE1        0.2740   16.9860    5.4100 C.ar   87  TYR87       0.0417
    226  CE2       -0.6960   17.9800    3.4720 C.ar   87  TYR87       0.0417
    227  CZ         0.4160   17.5200    4.1800 C.ar   87  TYR87       0.1957
    228  OH         1.6800   17.6070    3.6950 O.3    87  TYR87      -0.2866
@<TRIPOS>BOND
     1   149   150    1
     2   149   146    1
     3   150   151    1
     4   148   147    2
     5   147   146    1
     6   146   145    1
     7   151   145    1
     8   178   179    2
     9   178   177    1
    10   163   162    1
    11   180   181    1
    12   180   177    1
    13   145   143   am
    14   160   161    2
    15   160   159    1
    16   181   182    1
    17   128   127    2
    18   162   159    1
    19   162   164    1
    20   177   176    1
    21   159   158    1
    22   127   126    1
    23   143   144    2
    24   143   142    1
    25   176   167   am
    26   182   183    2
    27   182   184   am
    28   158   154   am
    29   152   153    1
    30   132   133    1
    31   135   134    2
    32    54    52    1
    33   165   166    1
    34   133   134    1
    35   133   136    1
    36   134   141   am
    37   126   125    1
    38   126   129    1
    39   167   168    2
    40   167   166    1
    41   154   155    2
    42   154   153    1
    43    51    52    2
    44    51    50    1
    45   139   138    2
    46   141   142    1
    47    52    53    1
    48   120   119    2
    49   123   122   ar
    50   153   156    1
    51   166   169    1
    52    50    49    2
    53   125   131    1
    54   129   130    1
    55   138   140   am
    56   138   137    1
    57   122   124   ar
    58   122   121    1
    59   136   137    1
    60   119   118    1
    61   193   192    1
    62   156   157    1
    63   169   170    1
    64   121   118    1
    65    49    48    1
    66    58    57    2
    67   131   130    1
    68   192   191    1
    69    48    45    1
    70   118   117    1
    71   171   170   ar
    72   171   173   ar
    73   170   172   ar
    74   185   186    1
    75    57    56    1
    76   189   186    1
    77   189   190    1
    78    59    56    1
    79   191   190    1
    80   111   110    2
    81   188   187    2
    82   173   175   ar
    83   172   174   ar
    84   226   224   ar
    85   226   227   ar
    86   186   187    1
    87    55    56    1
    88    55    46   am
    89    45    46    1
    90    45    44    1
    91   228   227    1
    92    46    47    2
    93   224   222   ar
    94   227   225   ar
    95   175   174   ar
    96   100    99    2
    97   110   109    1
    98    44    37   am
    99   200   199    2
   100    42    41   ar
   101   209   207    1
   102   198   199    1
   103   198   195    1
   104   222   221    1
   105   222   223   ar
   106   199   201   am
   107   225   223   ar
   108    96    95    2
   109   109   108    1
   110   109   112    1
   111    99   108   am
   112    99    98    1
   113    37    38    2
   114    37    36    1
   115    28    27    2
   116   221   218    1
   117    41    43   ar
   118    41    40    1
   119   194   195    1
   120   216   214    1
   121   207   206    1
   122   197   196    2
   123   195   196    1
   124   113   112    1
   125   113   114    1
   126    98    97    1
   127    98   101    1
   128    36    39    1
   129    36    35    1
   130    40    39    1
   131   218   219    1
   132   218   217    1
   133    95    97   am
   134    95    94    1
   135   208   206    1
   136   116   114   am
   137    27    35   am
   138    27    26    1
   139   215   214    1
   140   219   220    2
   141    60    61    1
   142    67    65    1
   143   101   102    1
   144    64    61    1
   145    64    65    1
   146   114   115    2
   147   206   203    1
   148   214   211    1
   149   104   102   ar
   150   104   106   ar
   151    94    93    1
   152    29    26    1
   153    29    30    1
   154    31    30   ar
   155    31    33   ar
   156    26    25    1
   157    61    62    1
   158   102   103   ar
   159    65    66    1
   160    85    84    2
   161   202   203    1
   162   106   107   ar
   163    13    14   ar
   164    13    11   ar
   165    30    32   ar
   166   211   212    1
   167   211   210    1
   168   203   204    1
   169    14    12   ar
   170    74    72    1
   171    62    63    2
   172    33    34   ar
   173   205   204    2
   174    93    84   am
   175    73    72    1
   176   212   213    2
   177    84    83    1
   178    72    69    1
   179    25    23   am
   180   103   105   ar
   181   107   105   ar
   182    11     8   ar
   183    24    23    2
   184    12    10   ar
   185    81    79    1
   186    32    34   ar
   187    80    79    1
   188    20    19    1
   189    23    22    1
   190    18    17    2
   191    19    16    1
   192    83    86    1
   193    83    82    1
   194    79    76    1
   195    86    87    1
   196     8    10   ar
   197     8     6   ar
   198    69    68    1
   199    69    70    1
   200    10     9   ar
   201    71    70    2
   202    17    16    1
   203    17    21   am
   204    16    15    1
   205    22    21    1
   206     6     5    1
   207     6     7   ar
   208    76    75    1
   209    76    77    1
   210     9     7   ar
   211    87    88   ar
   212    87    89   ar
   213    88    90   ar
   214     5     2    1
   215    77    78    2
   216     4     3    2
   217    89    91   ar
   218    90    92   ar
   219     2     3    1
   220     2     1    1
   221    91    92   ar
