@<TRIPOS>MOLECULE
tmp/1ntpA00.pdb
 99 98 0 0 0
SMALL
GASTEIGER

@<TRIPOS>ATOM
      1  N         30.9520   14.6640   31.2250 N.3    24  PHE24      -0.1227
      2  CA        30.4860   13.8260   30.0920 C.3    24  PHE24       0.1736
      3  C         29.5970   14.4590   28.9920 C.2    24  PHE24       0.2592
      4  O         29.4600   13.8850   27.8990 O.2    24  PHE24      -0.2718
      5  CB        29.7730   12.6300   30.6650 C.3    24  PHE24       0.0547
      6  CG        28.4510   13.0060   31.3200 C.ar   24  PHE24      -0.0202
      7  CD1       28.4730   13.4220   32.6350 C.ar   24  PHE24      -0.0042
      8  CD2       27.2500   12.8940   30.6040 C.ar   24  PHE24      -0.0042
      9  CE1       27.3160   13.7380   33.2690 C.ar   24  PHE24      -0.0003
     10  CE2       26.0760   13.2400   31.2390 C.ar   24  PHE24      -0.0003
     11  CZ        26.1090   13.6560   32.5750 C.ar   24  PHE24      -0.0000
     12  N         29.0760   15.6020   29.2820 N.am   25  CYS25      -0.2023
     13  CA        28.1820   16.3520   28.3640 C.3    25  CYS25       0.1398
     14  C         28.3030   17.8410   28.7350 C.3    25  CYS25       0.2045
     15  O         28.8620   18.2920   29.8020 O.3    25  CYS25      -0.2185
     16  CB        26.7670   15.8070   28.3580 C.3    25  CYS25       0.0930
     17  SG        26.6140   14.5120   27.0220 S.3    25  CYS25      -0.0802
     18  N         20.0550   12.3780   25.1060 N.3    40  HIS40      -0.1241
     19  CA        20.9430   11.2000   25.0990 C.3    40  HIS40       0.1621
     20  C         22.0680   11.4060   26.1180 C.2    40  HIS40       0.2264
     21  O         22.8460   10.5560   26.3740 O.2    40  HIS40      -0.2867
     22  CB        21.5080   10.9070   23.6550 C.3    40  HIS40       0.0745
     23  CG        22.7200   11.6990   23.1560 C.ar   40  HIS40       0.0817
     24  ND1       22.6760   12.8410   22.3330 N.ar   40  HIS40      -0.2268
     25  CD2       24.0580   11.4580   23.3780 C.ar   40  HIS40       0.1154
     26  CE1       23.9430   13.1870   22.0690 C.ar   40  HIS40       0.1986
     27  NE2       24.7600   12.3730   22.6770 N.ar   40  HIS40      -0.2212
     28  N         31.7910   19.4470   15.5860 N.3   172  SER172     -0.1202
     29  CA        31.7250   19.1010   17.0090 C.3   172  SER172      0.2020
     30  C         32.1860   17.6650   17.1780 C.2   172  SER172      0.2619
     31  O         32.2620   16.8450   16.2270 O.2   172  SER172     -0.2717
     32  CB        30.3210   19.0190   17.5760 C.3   172  SER172      0.2103
     33  OG        29.3830   18.3270   16.7060 O.3   172  SER172     -0.2182
     34  N         32.4930   17.2200   18.3720 N.am  173  CYS173     -0.1955
     35  CA        32.8930   15.8070   18.5270 C.3   173  CYS173      0.1843
     36  C         32.5040   15.1980   19.9100 C.2   173  CYS173      0.2625
     37  O         31.8070   15.8070   20.7470 O.2   173  CYS173     -0.2714
     38  CB        34.4230   15.8890   18.3450 C.3   173  CYS173      0.0997
     39  SG        35.3660   14.3650   17.8730 S.3   173  CYS173     -0.0797
     40  N         32.9480   13.9430   20.1600 N.am  174  GLN174     -0.1963
     41  CA        32.6240   13.2050   21.4080 C.3   174  GLN174      0.1736
     42  C         33.0190   14.0610   22.6560 C.2   174  GLN174      0.2655
     43  O         34.2310   14.4420   22.7980 O.2   174  GLN174     -0.2711
     44  CB        33.2330   11.7220   21.3480 C.3   174  GLN174      0.0408
     45  CG        32.7500   10.6900   22.4270 C.3   174  GLN174      0.0908
     46  CD        32.7450    9.1140   22.4200 C.2   174  GLN174      0.2608
     47  OE1       31.9720    8.5450   23.1620 O.2   174  GLN174     -0.2717
     48  NE2       33.5350    8.2930   21.7050 N.am  174  GLN174     -0.0878
     49  N         31.9500   14.3070   23.4590 N.am  175  GLY175     -0.1730
     50  CA        32.1200   15.0920   24.7350 C.2   175  GLY175      0.1340
     51  C         31.5490   16.5510   24.7280 C.2   175  GLY175      0.2521
     52  O         31.4290   17.2840   25.8010 O.2   175  GLY175     -0.2816
     53  N         28.5830   16.8330   23.1020 N.3   177  SER177     -0.1217
     54  CA        27.1350   16.6100   23.1620 C.3   177  SER177      0.1889
     55  C         26.4270   17.3600   24.3230 C.2   177  SER177      0.2288
     56  O         26.9480   17.4830   25.4700 O.2   177  SER177     -0.2866
     57  CB        26.7240   15.1330   23.3310 C.3   177  SER177      0.2089
     58  OG        26.8110   14.5240   22.0360 O.3   177  SER177     -0.2183
     59  N         24.1020   20.3960   20.5380 N.3   191  VAL191     -0.1231
     60  CA        24.9740   19.3590   19.9240 C.3   191  VAL191      0.1692
     61  C         24.3820   17.9760   20.1800 C.2   191  VAL191      0.2593
     62  O         24.3760   17.5770   21.3680 O.2   191  VAL191     -0.2718
     63  CB        26.3940   19.4590   20.5780 C.3   191  VAL191      0.0266
     64  CG1       27.2880   18.4970   19.8020 C.3   191  VAL191      0.0020
     65  CG2       27.0360   20.8770   20.6320 C.3   191  VAL191      0.0020
     66  N         24.0140   17.3130   19.0870 N.am  192  SER192     -0.1938
     67  CA        23.2690   16.0420   19.1680 C.3   192  SER192      0.2055
     68  C         24.0200   14.8460   18.5480 C.2   192  SER192      0.2643
     69  O         24.4480   13.8670   19.2150 O.2   192  SER192     -0.2714
     70  CB        21.8920   16.2060   18.5000 C.3   192  SER192      0.2130
     71  OG        21.1240   15.0220   18.6010 O.3   192  SER192     -0.2179
     72  N         24.3380   14.8870   17.2660 N.am  193  TRP193     -0.1959
     73  CA        24.9690   13.6970   16.6920 C.3   193  TRP193      0.1771
     74  C         25.7140   14.0200   15.3900 C.2   193  TRP193      0.2620
     75  O         25.7360   15.1390   14.7960 O.2   193  TRP193     -0.2715
     76  CB        23.8940   12.5950   16.4690 C.3   193  TRP193      0.0590
     77  CG        22.8080   12.8120   15.4170 C.ar  193  TRP193      0.0006
     78  CD1       21.6290   13.4040   15.6060 C.ar  193  TRP193      0.0946
     79  CD2       22.9010   12.3490   14.0610 C.ar  193  TRP193      0.0152
     80  NE1       20.9270   13.3100   14.3640 N.ar  193  TRP193     -0.2442
     81  CE2       21.6620   12.6770   13.4740 C.ar  193  TRP193      0.0810
     82  CE3       23.8500   11.6580   13.2650 C.ar  193  TRP193      0.0012
     83  CZ2       21.2500   12.3960   12.1780 C.ar  193  TRP193      0.0191
     84  CZ3       23.4610   11.4410   11.9150 C.ar  193  TRP193      0.0001
     85  CH2       22.2430   11.7920   11.4500 C.ar  193  TRP193      0.0015
     86  N         26.4270   13.0520   14.9240 N.am  194  GLY194     -0.1954
     87  CA        27.1290   13.1760   13.6360 C.3   194  GLY194      0.1869
     88  C         27.7650   11.8450   13.2170 C.2   194  GLY194      0.2309
     89  O         27.5520   10.7960   13.8580 O.2   194  GLY194     -0.2863
     90  N         31.2370   10.2980   12.8330 N.3   196  GLY196     -0.1210
     91  CA        32.5910   10.6960   13.1090 C.3   196  GLY196      0.1956
     92  C         32.5640   12.2380   13.2980 C.2   196  GLY196      0.2612
     93  O         31.5170   12.8650   13.5340 O.2   196  GLY196     -0.2717
     94  N         33.7600   12.6890   13.2780 N.am  197  CYS197     -0.1970
     95  CA        33.9840   14.1190   13.4870 C.3   197  CYS197      0.1712
     96  C         34.8230   14.7350   12.3740 C.2   197  CYS197      0.2296
     97  O         35.9420   14.2010   12.0970 O.2   197  CYS197     -0.2864
     98  CB        34.7080   14.4120   14.7830 C.3   197  CYS197      0.0983
     99  SG        34.0170   13.6330   16.3140 S.3   197  CYS197     -0.0798
@<TRIPOS>BOND
     1    85    84   ar
     2    85    83   ar
     3    84    82   ar
     4    97    96    2
     5    83    81   ar
     6    96    95    1
     7    90    91    1
     8    91    92    1
     9    88    87    1
    10    88    89    2
    11    82    79   ar
    12    94    92   am
    13    94    95    1
    14    92    93    2
    15    81    79   ar
    16    81    80   ar
    17    95    98    1
    18    87    86    1
    19    79    77   ar
    20    80    78   ar
    21    98    99    1
    22    75    74    2
    23    86    74   am
    24    74    73    1
    25    77    78   ar
    26    77    76    1
    27    28    29    1
    28    31    30    2
    29    99    39    1
    30    76    73    1
    31    73    72    1
    32    33    32    1
    33    29    30    1
    34    29    32    1
    35    30    34   am
    36    72    68   am
    37    39    38    1
    38    38    35    1
    39    34    35    1
    40    70    71    1
    41    70    67    1
    42    35    36    1
    43    68    67    1
    44    68    69    2
    45    66    67    1
    46    66    61   am
    47    64    63    1
    48    36    40   am
    49    36    37    2
    50    60    61    1
    51    60    59    1
    52    60    63    1
    53    40    41    1
    54    61    62    2
    55    63    65    1
    56    44    41    1
    57    44    45    1
    58    41    42    1
    59    48    46   am
    60    58    57    1
    61    26    24   ar
    62    26    27   ar
    63    24    23   ar
    64    46    45    1
    65    46    47    2
    66    42    43    2
    67    42    49   am
    68    27    25   ar
    69    53    54    1
    70    23    25   ar
    71    23    22    1
    72    54    57    1
    73    54    55    1
    74    49    50    1
    75    22    19    1
    76    55    56    2
    77    51    50    2
    78    51    52    1
    79    19    18    1
    80    19    20    1
    81    20    21    2
    82    17    16    1
    83     4     3    2
    84    16    13    1
    85    13    14    1
    86    13    12    1
    87    14    15    1
    88     3    12   am
    89     3     2    1
    90     2     5    1
    91     2     1    1
    92     8    10   ar
    93     8     6   ar
    94     5     6    1
    95    10    11   ar
    96     6     7   ar
    97    11     9   ar
    98     7     9   ar
