@<TRIPOS>MOLECULE
tmp/1ntzC02.pdb
 218 210 0 0 0
SMALL
GASTEIGER

@<TRIPOS>ATOM
      1  N         72.8280   59.6070  154.9700 N.3   120  LEU120     -0.1245
      2  CA        73.7910   59.4150  156.0390 C.3   120  LEU120      0.1561
      3  C         74.0260   60.7000  156.8390 C.2   120  LEU120      0.2260
      4  O         74.0490   60.6760  158.1010 O.2   120  LEU120     -0.2867
      5  CB        75.1210   58.9560  155.4500 C.3   120  LEU120      0.0270
      6  CG        75.1010   57.5340  154.9520 C.3   120  LEU120      0.0019
      7  CD1       76.2540   57.2530  154.0470 C.3   120  LEU120      0.0001
      8  CD2       75.1270   56.6420  156.1420 C.3   120  LEU120      0.0001
      9  N         71.1830   61.7030  158.9450 N.3   123  MET123     -0.1230
     10  CA        71.0890   60.7270  160.0170 C.3   123  MET123      0.1702
     11  C         72.1120   61.0950  161.0870 C.2   123  MET123      0.2592
     12  O         71.7420   61.2640  162.2840 O.2   123  MET123     -0.2718
     13  CB        71.3200   59.3130  159.5180 C.3   123  MET123      0.0401
     14  CG        70.0790   58.5930  159.1570 C.3   123  MET123      0.0596
     15  SD        70.4420   56.9080  158.4950 S.3   123  MET123     -0.1393
     16  CE        72.1170   56.6800  159.2060 C.3   123  MET123      0.0692
     17  N         73.3820   61.2710  160.6680 N.am  124  ALA124     -0.1980
     18  CA        74.4360   61.6680  161.6010 C.3   124  ALA124      0.1597
     19  C         74.0210   62.9500  162.2500 C.2   124  ALA124      0.2287
     20  O         74.1860   63.1070  163.4690 O.2   124  ALA124     -0.2864
     21  CB        75.7600   61.8410  160.9080 C.3   124  ALA124      0.0319
     22  N         70.9540   62.2990  164.9750 N.3   127  PHE127     -0.1241
     23  CA        71.4640   61.5720  166.1190 C.3   127  PHE127      0.1605
     24  C         72.0950   62.5630  167.0660 C.2   127  PHE127      0.2264
     25  O         71.7080   62.6270  168.2040 O.2   127  PHE127     -0.2867
     26  CB        72.4660   60.5020  165.6570 C.3   127  PHE127      0.0534
     27  CG        73.4250   60.0390  166.7250 C.ar  127  PHE127     -0.0203
     28  CD1       74.7950   59.9980  166.4610 C.ar  127  PHE127     -0.0042
     29  CD2       72.9700   59.5780  167.9540 C.ar  127  PHE127     -0.0042
     30  CE1       75.6930   59.5670  167.4150 C.ar  127  PHE127     -0.0003
     31  CE2       73.8730   59.1460  168.9250 C.ar  127  PHE127     -0.0003
     32  CZ        75.2370   59.1460  168.6520 C.ar  127  PHE127     -0.0000
     33  N         69.4260   64.8840  168.9340 N.3   130  TYR130     -0.1227
     34  CA        68.7240   64.2950  170.0700 C.3   130  TYR130      0.1736
     35  C         69.4970   64.2690  171.4160 C.2   130  TYR130      0.2595
     36  O         68.8880   64.2110  172.4830 O.2   130  TYR130     -0.2718
     37  CB        68.2330   62.9080  169.7060 C.3   130  TYR130      0.0548
     38  CG        67.1780   62.4000  170.6340 C.ar  130  TYR130     -0.0200
     39  CD1       67.3750   61.2170  171.3690 C.ar  130  TYR130     -0.0009
     40  CD2       65.9870   63.1200  170.8280 C.ar  130  TYR130     -0.0009
     41  CE1       66.4060   60.7460  172.2410 C.ar  130  TYR130      0.0417
     42  CE2       65.0120   62.6680  171.7100 C.ar  130  TYR130      0.0417
     43  CZ        65.2220   61.4720  172.4180 C.ar  130  TYR130      0.1957
     44  OH        64.2510   60.9940  173.2950 O.3   130  TYR130     -0.2866
     45  N         70.8280   64.3400  171.3560 N.am  131  VAL131     -0.1980
     46  CA        71.6420   64.2920  172.5520 C.3   131  VAL131      0.1595
     47  C         71.6500   65.6190  173.2570 C.2   131  VAL131      0.2287
     48  O         71.7180   65.6760  174.4570 O.2   131  VAL131     -0.2864
     49  CB        73.0860   63.8500  172.2280 C.3   131  VAL131      0.0276
     50  CG1       73.9340   63.7490  173.4930 C.3   131  VAL131      0.0022
     51  CG2       73.0700   62.5150  171.5040 C.3   131  VAL131      0.0022
     52  N         67.3180   59.7260  177.6940 N.3   137  MET137     -0.1245
     53  CA        67.4230   59.0720  176.3990 C.3   137  MET137      0.1570
     54  C         68.4880   59.6630  175.5160 C.2   137  MET137      0.2261
     55  O         69.0210   58.9880  174.6420 O.2   137  MET137     -0.2867
     56  CB        66.0760   58.9720  175.6860 C.3   137  MET137      0.0387
     57  CG        65.1440   57.9440  176.3240 C.3   137  MET137      0.0595
     58  SD        65.9500   56.3230  176.7550 S.3   137  MET137     -0.1393
     59  CE        66.5600   55.8070  175.2080 C.3   137  MET137      0.0692
     60  N         71.8450   57.9930  177.1370 N.3   140  TRP140     -0.1227
     61  CA        71.9210   56.5470  176.9340 C.3   140  TRP140      0.1737
     62  C         71.8390   56.1890  175.4570 C.2   140  TRP140      0.2596
     63  O         72.3530   55.1540  175.0160 O.2   140  TRP140     -0.2718
     64  CB        70.8700   55.8250  177.7770 C.3   140  TRP140      0.0564
     65  CG        71.1830   55.9110  179.2940 C.ar  140  TRP140      0.0003
     66  CD1       70.5170   56.6470  180.2350 C.ar  140  TRP140      0.0946
     67  CD2       72.2670   55.2740  179.9850 C.ar  140  TRP140      0.0152
     68  NE1       71.1040   56.4840  181.4660 N.ar  140  TRP140     -0.2442
     69  CE2       72.1840   55.6500  181.3370 C.ar  140  TRP140      0.0810
     70  CE3       73.3030   54.4100  179.5950 C.ar  140  TRP140      0.0012
     71  CZ2       73.0800   55.2000  182.2880 C.ar  140  TRP140      0.0191
     72  CZ3       74.1940   53.9710  180.5450 C.ar  140  TRP140      0.0001
     73  CH2       74.0790   54.3640  181.8720 C.ar  140  TRP140      0.0015
     74  N         71.1850   57.0510  174.7000 N.am  141  GLY141     -0.1942
     75  CA        71.1600   56.9090  173.2780 C.3   141  GLY141      0.2014
     76  C         72.5860   57.1720  172.8030 C.2   141  GLY141      0.2638
     77  O         73.1750   56.3380  172.1140 O.2   141  GLY141     -0.2714
     78  N         73.1640   58.2950  173.2550 N.am  142  ALA142     -0.1977
     79  CA        74.5420   58.6750  172.9160 C.3   142  ALA142      0.1597
     80  C         75.5410   57.5960  173.2900 C.2   142  ALA142      0.2287
     81  O         76.5470   57.3690  172.5820 O.2   142  ALA142     -0.2864
     82  CB        74.9080   59.9490  173.6090 C.3   142  ALA142      0.0319
     83  N         74.8310   54.0680  173.9620 N.3   144  VAL144     -0.1231
     84  CA        74.6400   52.8470  173.1800 C.3   144  VAL144      0.1692
     85  C         75.2110   52.9460  171.7720 C.2   144  VAL144      0.2591
     86  O         75.9150   52.0350  171.3110 O.2   144  VAL144     -0.2718
     87  CB        73.1600   52.4560  173.0840 C.3   144  VAL144      0.0266
     88  CG1       72.9460   51.3820  172.0450 C.3   144  VAL144      0.0020
     89  CG2       72.6660   52.0060  174.3730 C.3   144  VAL144      0.0020
     90  N         74.9970   54.1020  171.1400 N.am  145  ILE145     -0.1980
     91  CA        75.4060   54.3190  169.7470 C.3   145  ILE145      0.1595
     92  C         76.8540   54.3680  169.4850 C.2   145  ILE145      0.2287
     93  O         77.3830   53.5290  168.7620 O.2   145  ILE145     -0.2864
     94  CB        74.7230   55.5310  169.1620 C.3   145  ILE145      0.0276
     95  CG1       73.2910   55.2600  169.1810 C.3   145  ILE145      0.0022
     96  CG2       75.0980   55.7010  167.6770 C.3   145  ILE145      0.0022
     97  CD1       73.1060   53.9270  168.9570 C.3   145  ILE145      0.0001
     98  N         79.2050   51.3760  169.6590 N.3   148  LEU148     -0.1231
     99  CA        79.1560   50.3810  168.5820 C.3   148  LEU148      0.1693
    100  C         80.4890   50.3190  167.8980 C.2   148  LEU148      0.2591
    101  O         81.0020   49.2370  167.5870 O.2   148  LEU148     -0.2718
    102  CB        78.1050   50.7740  167.5300 C.3   148  LEU148      0.0284
    103  CG        76.6690   50.3350  167.7200 C.3   148  LEU148      0.0019
    104  CD1       75.7660   51.0820  166.7870 C.3   148  LEU148      0.0001
    105  CD2       76.5850   48.8820  167.4570 C.3   148  LEU148      0.0001
    106  N         81.0710   51.4980  167.7090 N.am  149  LEU149     -0.1980
    107  CA        82.3250   51.6480  167.0140 C.3   149  LEU149      0.1596
    108  C         83.5040   50.9070  167.6800 C.2   149  LEU149      0.2287
    109  O         84.5400   50.6940  167.0540 O.2   149  LEU149     -0.2864
    110  CB        82.6220   53.1410  166.8060 C.3   149  LEU149      0.0297
    111  CG        81.5040   53.9670  166.0980 C.3   149  LEU149      0.0022
    112  CD1       81.5920   55.4690  166.3680 C.3   149  LEU149      0.0001
    113  CD2       81.4530   53.7090  164.6350 C.3   149  LEU149      0.0001
    114  N         65.6270   52.1230  176.6920 N.3   267  ILE267     -0.1231
    115  CA        66.7710   52.2050  175.7930 C.3   267  ILE267      0.1692
    116  C         66.5480   51.7910  174.3430 C.2   267  ILE267      0.2592
    117  O         66.7790   50.6360  173.9450 O.2   267  ILE267     -0.2718
    118  CB        68.0480   51.6900  176.4110 C.3   267  ILE267      0.0266
    119  CG1       68.2730   52.4240  177.7290 C.3   267  ILE267      0.0019
    120  CG2       69.2040   51.9710  175.5070 C.3   267  ILE267      0.0020
    121  CD1       69.5570   52.0960  178.4120 C.3   267  ILE267      0.0001
    122  N         66.0660   52.7640  173.5720 N.am  268  LYS268     -0.1966
    123  CA        65.7700   52.6100  172.1620 C.3   268  LYS268      0.1713
    124  C         66.0060   53.9830  171.4660 C.2   268  LYS268      0.2458
    125  O         66.0400   55.0250  172.1140 O.2   268  LYS268     -0.2730
    126  CB        64.2980   52.1420  171.9850 C.3   268  LYS268      0.0311
    127  CG        63.2280   53.1700  172.4290 C.3   268  LYS268      0.0038
    128  CD        61.8080   52.6570  172.1540 C.3   268  LYS268      0.0206
    129  CE        60.7730   53.8060  172.0140 C.3   268  LYS268      0.1093
    130  NZ        59.4080   53.2950  171.5670 N.3   268  LYS268     -0.1314
    131  N         66.2590   53.9620  170.1710 N.am  269  PRO269     -0.2716
    132  CA        66.4390   55.1820  169.3940 C.3   269  PRO269      0.1536
    133  C         65.1820   55.9690  169.1940 C.2   269  PRO269      0.2598
    134  O         64.0900   55.6410  169.7060 O.2   269  PRO269     -0.2715
    135  CB        66.7890   54.6500  167.9920 C.3   269  PRO269      0.0310
    136  CG        67.0610   53.2530  168.1120 C.3   269  PRO269      0.0237
    137  CD        66.5240   52.7650  169.3760 C.3   269  PRO269      0.0939
    138  N         65.3370   57.0180  168.3990 N.am  270  GLU270     -0.1978
    139  CA        64.2150   57.7490  167.9140 C.3   270  GLU270      0.1602
    140  C         63.6900   56.8050  166.8070 C.2   270  GLU270      0.2287
    141  O         64.4590   56.0330  166.2240 O.2   270  GLU270     -0.2864
    142  CB        64.6640   59.0840  167.3350 C.3   270  GLU270      0.0415
    143  CG        64.7690   60.1940  168.3710 C.3   270  GLU270      0.1163
    144  CD        63.4140   60.5450  168.9680 C.2   270  GLU270      0.3649
    145  OE1       63.1840   60.2710  170.1670 O.co2 270  GLU270     -0.2457
    146  OE2       62.5630   61.0820  168.2280 O.co2 270  GLU270     -0.2457
    147  N         65.3970   55.2500  163.4040 N.3   273  PHE273     -0.1241
    148  CA        66.5210   54.2910  163.3980 C.3   273  PHE273      0.1605
    149  C         66.0840   52.8980  163.8940 C.2   273  PHE273      0.2264
    150  O         66.8940   51.9460  163.9120 O.2   273  PHE273     -0.2867
    151  CB        67.6470   54.7630  164.3170 C.3   273  PHE273      0.0534
    152  CG        68.2540   56.0680  163.9360 C.ar  273  PHE273     -0.0203
    153  CD1       69.2220   56.1340  162.9580 C.ar  273  PHE273     -0.0042
    154  CD2       67.9100   57.2270  164.6120 C.ar  273  PHE273     -0.0042
    155  CE1       69.8340   57.3430  162.6460 C.ar  273  PHE273     -0.0003
    156  CE2       68.5270   58.4310  164.3140 C.ar  273  PHE273     -0.0003
    157  CZ        69.4650   58.4940  163.3150 C.ar  273  PHE273     -0.0000
    158  N         66.9150   49.8300  161.7610 N.3   276  ALA276     -0.1231
    159  CA        68.3330   49.5410  161.7430 C.3   276  ALA276      0.1694
    160  C         68.7270   48.9630  163.0740 C.2   276  ALA276      0.2592
    161  O         69.5910   48.0830  163.1510 O.2   276  ALA276     -0.2718
    162  CB        69.1140   50.8080  161.4720 C.3   276  ALA276      0.0304
    163  N         68.0880   49.4840  164.1300 N.am  277  TYR277     -0.1976
    164  CA        68.2850   49.0130  165.5060 C.3   277  TYR277      0.1639
    165  C         67.8750   47.5510  165.6050 C.2   277  TYR277      0.2290
    166  O         68.5760   46.7410  166.2280 O.2   277  TYR277     -0.2864
    167  CB        67.4250   49.8350  166.4610 C.3   277  TYR277      0.0560
    168  CG        67.6070   49.5140  167.9340 C.ar  277  TYR277     -0.0198
    169  CD1       68.8690   49.2940  168.4750 C.ar  277  TYR277     -0.0009
    170  CD2       66.5150   49.4570  168.7920 C.ar  277  TYR277     -0.0009
    171  CE1       69.0350   49.0240  169.8520 C.ar  277  TYR277      0.0417
    172  CE2       66.6790   49.2190  170.1550 C.ar  277  TYR277      0.0417
    173  CZ        67.9410   48.9890  170.6670 C.ar  277  TYR277      0.1957
    174  OH        68.1040   48.7360  172.0060 O.3   277  TYR277     -0.2866
    175  N         70.4160   45.4210  163.8480 N.3   280  LEU280     -0.1245
    176  CA        71.6200   45.3470  164.6940 C.3   280  LEU280      0.1561
    177  C         71.5250   44.2470  165.7780 C.2   280  LEU280      0.2260
    178  O         72.2860   43.2760  165.7400 O.2   280  LEU280     -0.2867
    179  CB        71.9150   46.7200  165.3190 C.3   280  LEU280      0.0270
    180  CG        72.7850   46.8100  166.5700 C.3   280  LEU280      0.0019
    181  CD1       74.1450   46.3650  166.2980 C.3   280  LEU280      0.0001
    182  CD2       72.8040   48.2100  167.0980 C.3   280  LEU280      0.0001
    183  N         77.0740   45.3600  164.0330 N.3   290  VAL290     -0.1245
    184  CA        77.3650   46.6730  163.5310 C.3   290  VAL290      0.1561
    185  C         77.7900   46.6110  162.0660 C.2   290  VAL290      0.2260
    186  O         77.6770   47.6000  161.3370 O.2   290  VAL290     -0.2867
    187  CB        78.4260   47.4120  164.4130 C.3   290  VAL290      0.0252
    188  CG1       79.7840   46.7940  164.2650 C.3   290  VAL290      0.0019
    189  CG2       78.4690   48.9040  164.0840 C.3   290  VAL290      0.0019
    190  N         74.4930   46.4190  160.5630 N.3   293  LEU293     -0.1231
    191  CA        73.7470   47.6580  160.8170 C.3   293  LEU293      0.1693
    192  C         74.1120   48.6360  159.7080 C.2   293  LEU293      0.2591
    193  O         73.2400   49.2390  159.0540 O.2   293  LEU293     -0.2718
    194  CB        74.1300   48.2510  162.1680 C.3   293  LEU293      0.0284
    195  CG        73.7920   49.7290  162.3500 C.3   293  LEU293      0.0019
    196  CD1       72.4120   49.9090  162.9000 C.3   293  LEU293      0.0001
    197  CD2       74.8120   50.4030  163.2290 C.3   293  LEU293      0.0001
    198  N         75.4060   48.7670  159.4900 N.am  294  ALA294     -0.1980
    199  CA        75.9180   49.6230  158.4680 C.3   294  ALA294      0.1597
    200  C         75.3800   49.1770  157.1180 C.2   294  ALA294      0.2287
    201  O         74.7900   49.9750  156.3900 O.2   294  ALA294     -0.2864
    202  CB        77.4630   49.5790  158.4660 C.3   294  ALA294      0.0319
    203  N         72.0120   50.1880  155.5260 N.3   297  ILE297     -0.1231
    204  CA        71.8880   51.4910  154.9300 C.3   297  ILE297      0.1692
    205  C         72.7120   51.6340  153.6780 C.2   297  ILE297      0.2591
    206  O         72.1860   52.0470  152.6450 O.2   297  ILE297     -0.2718
    207  CB        72.1340   52.6070  155.9430 C.3   297  ILE297      0.0266
    208  CG1       70.7940   53.1420  156.3980 C.3   297  ILE297      0.0019
    209  CG2       72.8890   53.7440  155.3240 C.3   297  ILE297      0.0020
    210  CD1       69.8710   53.3970  155.2420 C.3   297  ILE297      0.0001
    211  N         73.9650   51.1710  153.7250 N.am  298  LEU298     -0.1980
    212  CA        74.8710   51.2670  152.5700 C.3   298  LEU298      0.1596
    213  C         74.4670   50.3890  151.3910 C.2   298  LEU298      0.2287
    214  O         75.0910   50.4540  150.3230 O.2   298  LEU298     -0.2864
    215  CB        76.2990   50.9310  152.9650 C.3   298  LEU298      0.0297
    216  CG        76.9760   51.9030  153.8970 C.3   298  LEU298      0.0022
    217  CD1       78.3650   51.3950  154.2940 C.3   298  LEU298      0.0001
    218  CD2       77.0610   53.2590  153.2430 C.3   298  LEU298      0.0001
@<TRIPOS>BOND
     1   214   213    2
     2   213   212    1
     3   212   215    1
     4   212   211    1
     5   206   205    2
     6   215   216    1
     7   218   216    1
     8   205   211   am
     9   205   204    1
    10   216   217    1
    11     7     6    1
    12   204   203    1
    13   204   207    1
    14     6     5    1
    15     6     8    1
    16     1     2    1
    17   210   208    1
    18   209   207    1
    19     5     2    1
    20   207   208    1
    21     2     3    1
    22   201   200    2
    23     3     4    2
    24   200   199    1
    25   202   199    1
    26   199   198    1
    27    15    14    1
    28    15    16    1
    29     9    10    1
    30   193   192    2
    31    14    13    1
    32   198   192   am
    33    13    10    1
    34   192   191    1
    35    10    11    1
    36   190   191    1
    37    17    11   am
    38    17    18    1
    39   191   194    1
    40    21    18    1
    41    11    12    2
    42   186   185    2
    43   162   159    1
    44    18    19    1
    45   159   158    1
    46   159   160    1
    47   185   184    1
    48   194   195    1
    49    19    20    2
    50   195   196    1
    51   195   197    1
    52   155   153   ar
    53   155   157   ar
    54   153   152   ar
    55   160   161    2
    56   160   163   am
    57   157   156   ar
    58   148   147    1
    59   148   149    1
    60   148   151    1
    61   184   183    1
    62   184   187    1
    63   175   176    1
    64   149   150    2
    65   152   151    1
    66   152   154   ar
    67   189   187    1
    68   163   164    1
    69   188   187    1
    70   156   154   ar
    71   113   111    1
    72   176   179    1
    73   176   177    1
    74    22    23    1
    75   179   180    1
    76   164   165    1
    77   164   167    1
    78   165   166    2
    79    26    23    1
    80    26    27    1
    81   178   177    2
    82   111   112    1
    83   111   110    1
    84    23    24    1
    85   141   140    2
    86   181   180    1
    87   167   168    1
    88    28    27   ar
    89    28    30   ar
    90   180   182    1
    91    27    29   ar
    92   104   103    1
    93   110   107    1
    94   140   139    1
    95   107   108    1
    96   107   106    1
    97   109   108    2
    98    24    25    2
    99   142   139    1
   100   142   143    1
   101    30    32   ar
   102   105   103    1
   103   102   103    1
   104   102    99    1
   105   101   100    2
   106    96    94    1
   107   106   100   am
   108   100    99    1
   109   139   138    1
   110   168   169   ar
   111   168   170   ar
   112    29    31   ar
   113   135   136    1
   114   135   132    1
   115   136   137    1
   116   146   144   ar
   117   143   144    1
   118   138   133   am
   119   169   171   ar
   120    99    98    1
   121    32    31   ar
   122    93    92    2
   123   170   172   ar
   124    33    34    1
   125    97    95    1
   126   144   145   ar
   127    94    95    1
   128    94    91    1
   129   133   132    1
   130   133   134    2
   131   137   131    1
   132   132   131    1
   133    92    91    1
   134    37    34    1
   135    37    38    1
   136    91    90    1
   137   171   173   ar
   138    34    35    1
   139   172   173   ar
   140   131   124   am
   141    38    40   ar
   142    38    39   ar
   143   173   174    1
   144    40    42   ar
   145    90    85   am
   146    86    85    2
   147    45    35   am
   148    45    46    1
   149    39    41   ar
   150    35    36    2
   151   124   125    2
   152   124   123    1
   153    51    49    1
   154   130   129    1
   155    42    43   ar
   156    85    84    1
   157   126   123    1
   158   126   127    1
   159   129   128    1
   160    88    87    1
   161    77    76    2
   162   128   127    1
   163   123   122    1
   164    49    46    1
   165    49    50    1
   166    41    43   ar
   167    43    44    1
   168    46    47    1
   169    81    80    2
   170    76    78   am
   171    76    75    1
   172    79    78    1
   173    79    80    1
   174    79    82    1
   175    87    84    1
   176    87    89    1
   177    84    83    1
   178    47    48    2
   179    75    74    1
   180   122   116   am
   181   117   116    2
   182   116   115    1
   183    55    54    2
   184    74    62   am
   185    63    62    2
   186    59    58    1
   187    62    61    1
   188   120   118    1
   189    54    53    1
   190    56    57    1
   191    56    53    1
   192   115   118    1
   193   115   114    1
   194    57    58    1
   195    53    52    1
   196   118   119    1
   197    61    60    1
   198    61    64    1
   199   119   121    1
   200    64    65    1
   201    65    67   ar
   202    65    66   ar
   203    70    67   ar
   204    70    72   ar
   205    67    69   ar
   206    66    68   ar
   207    72    73   ar
   208    69    68   ar
   209    69    71   ar
   210    73    71   ar
