@<TRIPOS>MOLECULE
tmp/1ntzC03.pdb
 181 173 0 0 0
SMALL
GASTEIGER

@<TRIPOS>ATOM
      1  N         66.5330   76.1970  136.9460 N.3    16  ALA16      -0.1231
      2  CA        66.2090   75.2440  137.9690 C.3    16  ALA16       0.1694
      3  C         64.7510   75.2660  138.4210 C.2    16  ALA16       0.2592
      4  O         64.2620   74.2820  138.9010 O.2    16  ALA16      -0.2718
      5  CB        67.1310   75.4130  139.1360 C.3    16  ALA16       0.0304
      6  N         64.0570   76.3920  138.2880 N.am   17  PHE17      -0.1976
      7  CA        62.6620   76.4650  138.7710 C.3    17  PHE17       0.1639
      8  C         61.6720   77.1450  137.8370 C.2    17  PHE17       0.2290
      9  O         60.5010   77.2350  138.1700 O.2    17  PHE17      -0.2864
     10  CB        62.5800   77.2130  140.1240 C.3    17  PHE17       0.0560
     11  CG        63.6920   76.8800  141.0910 C.ar   17  PHE17      -0.0200
     12  CD1       63.7660   75.6400  141.6930 C.ar   17  PHE17      -0.0042
     13  CD2       64.6270   77.8250  141.4320 C.ar   17  PHE17      -0.0042
     14  CE1       64.7920   75.3400  142.5860 C.ar   17  PHE17      -0.0003
     15  CE2       65.6460   77.5330  142.3360 C.ar   17  PHE17      -0.0003
     16  CZ        65.7240   76.2890  142.9050 C.ar   17  PHE17      -0.0000
     17  N         62.7700   75.0980  133.3820 N.3    20  LEU20      -0.1231
     18  CA        63.2270   73.7390  133.4410 C.3    20  LEU20       0.1678
     19  C         62.1760   72.8290  132.8270 C.2    20  LEU20       0.2434
     20  O         60.9830   72.8690  133.2080 O.2    20  LEU20      -0.2733
     21  CB        63.4580   73.3660  134.8980 C.3    20  LEU20       0.0284
     22  CG        63.6750   71.9050  135.2560 C.3    20  LEU20       0.0019
     23  CD1       65.0850   71.4790  134.9320 C.3    20  LEU20       0.0001
     24  CD2       63.4050   71.7340  136.7280 C.3    20  LEU20       0.0001
     25  N         62.5730   72.0930  131.7910 N.am   21  PRO21      -0.2718
     26  CA        61.6550   71.1190  131.1420 C.3    21  PRO21       0.1535
     27  C         61.4440   69.9880  132.1020 C.2    21  PRO21       0.2598
     28  O         62.4380   69.3340  132.4920 O.2    21  PRO21      -0.2715
     29  CB        62.4420   70.6270  129.9370 C.3    21  PRO21       0.0310
     30  CG        63.5450   71.6510  129.7450 C.3    21  PRO21       0.0237
     31  CD        63.8990   72.1400  131.1500 C.3    21  PRO21       0.0939
     32  N         60.1890   69.7980  132.5240 N.am   22  ALA22      -0.1978
     33  CA        59.8140   68.7730  133.4610 C.3    22  ALA22       0.1597
     34  C         58.8100   67.8160  132.7850 C.2    22  ALA22       0.2287
     35  O         58.0750   68.2390  131.8950 O.2    22  ALA22      -0.2864
     36  CB        59.1750   69.4260  134.6610 C.3    22  ALA22       0.0319
     37  N         54.6720   63.5510  136.3060 N.3    26  ILE26      -0.1245
     38  CA        55.1650   63.2100  137.6420 C.3    26  ILE26       0.1561
     39  C         54.0470   63.4560  138.6210 C.2    26  ILE26       0.2260
     40  O         53.2450   64.3840  138.4460 O.2    26  ILE26      -0.2867
     41  CB        56.4630   63.9570  138.0440 C.3    26  ILE26       0.0252
     42  CG1       56.3570   65.4230  137.7330 C.3    26  ILE26       0.0019
     43  CG2       57.6350   63.3700  137.3490 C.3    26  ILE26       0.0019
     44  CD1       57.6170   66.3050  138.1240 C.3    26  ILE26       0.0001
     45  N         56.8580   62.8680  143.7660 N.3    30  TRP30      -0.1241
     46  CA        57.8830   63.6890  143.2460 C.3    30  TRP30       0.1605
     47  C         57.9400   64.9470  144.0920 C.2    30  TRP30       0.2264
     48  O         58.8770   65.7290  143.9750 O.2    30  TRP30      -0.2867
     49  CB        57.6810   63.9960  141.7460 C.3    30  TRP30       0.0550
     50  CG        58.4470   63.0450  140.8830 C.ar   30  TRP30       0.0003
     51  CD1       59.6370   63.2670  140.3210 C.ar   30  TRP30       0.0946
     52  CD2       58.1110   61.6780  140.5840 C.ar   30  TRP30       0.0152
     53  NE1       60.0850   62.1410  139.6720 N.ar   30  TRP30      -0.2442
     54  CE2       59.1620   61.1520  139.8110 C.ar   30  TRP30       0.0810
     55  CE3       57.0270   60.8520  140.8860 C.ar   30  TRP30       0.0012
     56  CZ2       59.1590   59.8420  139.3080 C.ar   30  TRP30       0.0191
     57  CZ3       57.0270   59.5290  140.3990 C.ar   30  TRP30       0.0001
     58  CH2       58.0940   59.0430  139.6270 C.ar   30  TRP30       0.0015
     59  N         61.0040   65.8910  147.1440 N.3    33  GLY33      -0.1210
     60  CA        62.2530   66.5600  146.9300 C.3    33  GLY33       0.1956
     61  C         62.1950   68.0130  147.3870 C.2    33  GLY33       0.2612
     62  O         63.1310   68.5010  148.0250 O.2    33  GLY33      -0.2717
     63  N         61.1130   68.7080  147.0340 N.am   34  SER34      -0.1952
     64  CA        60.9250   70.0910  147.4530 C.3    34  SER34       0.1924
     65  C         60.5820   70.1120  148.9710 C.2    34  SER34       0.2314
     66  O         61.0520   70.9810  149.7180 O.2    34  SER34      -0.2863
     67  CB        59.8280   70.7790  146.6210 C.3    34  SER34       0.2116
     68  OG        58.6320   70.0110  146.5950 O.3    34  SER34      -0.2180
     69  N         63.5260   69.9490  150.8070 N.3    37  GLY37      -0.1225
     70  CA        64.0730   71.2840  150.7000 C.3    37  GLY37       0.1811
     71  C         63.5060   72.1740  151.7940 C.2    37  GLY37       0.2280
     72  O         64.2610   72.7530  152.5310 O.2    37  GLY37      -0.2866
     73  N         64.5660   71.1230  155.2530 N.3    40  LEU40      -0.1231
     74  CA        65.9310   71.5050  155.5240 C.3    40  LEU40       0.1693
     75  C         65.9770   72.8980  155.9760 C.2    40  LEU40       0.2591
     76  O         66.6820   73.2040  156.9320 O.2    40  LEU40      -0.2718
     77  CB        66.8320   71.3110  154.3280 C.3    40  LEU40       0.0284
     78  CG        68.3180   71.6620  154.5220 C.3    40  LEU40       0.0019
     79  CD1       68.9680   71.0520  155.7750 C.3    40  LEU40       0.0001
     80  CD2       69.1000   71.3070  153.3150 C.3    40  LEU40       0.0001
     81  N         65.2210   73.7770  155.3240 N.am   41  ILE41      -0.1980
     82  CA        65.2500   75.1720  155.7660 C.3    41  ILE41       0.1595
     83  C         64.5510   75.4000  157.0860 C.2    41  ILE41       0.2287
     84  O         65.0640   76.1070  157.9290 O.2    41  ILE41      -0.2864
     85  CB        64.9230   76.2670  154.6110 C.3    41  ILE41       0.0276
     86  CG1       64.0310   77.4010  155.1500 C.3    41  ILE41       0.0022
     87  CG2       64.2650   75.6490  153.4320 C.3    41  ILE41       0.0022
     88  CD1       63.8000   78.5510  154.1500 C.3    41  ILE41       0.0001
     89  N         73.3420   71.1840  152.8280 N.3   189  MET189     -0.1245
     90  CA        72.8100   72.0620  151.8070 C.3   189  MET189      0.1570
     91  C         73.7020   72.1420  150.5900 C.2   189  MET189      0.2261
     92  O         73.2270   71.9720  149.4810 O.2   189  MET189     -0.2867
     93  CB        72.4780   73.4340  152.3530 C.3   189  MET189      0.0387
     94  CG        71.3270   74.0770  151.6180 C.3   189  MET189      0.0595
     95  SD        70.6950   75.5010  152.4870 S.3   189  MET189     -0.1393
     96  CE        72.1570   76.4120  152.7660 C.3   189  MET189      0.0692
     97  N         73.1050   69.1290  148.7960 N.3   192  ALA192     -0.1231
     98  CA        71.7680   69.1110  148.1630 C.3   192  ALA192      0.1694
     99  C         71.8030   69.8800  146.8230 C.2   192  ALA192      0.2591
    100  O         71.0370   69.6090  145.9160 O.2   192  ALA192     -0.2718
    101  CB        70.7370   69.7080  149.0810 C.3   192  ALA192      0.0304
    102  N         72.7140   70.8350  146.7230 N.am  193  MET193     -0.1979
    103  CA        72.8890   71.6100  145.5010 C.3   193  MET193      0.1605
    104  C         73.6060   70.7900  144.4330 C.2   193  MET193      0.2287
    105  O         73.2750   70.8720  143.2770 O.2   193  MET193     -0.2864
    106  CB        73.6240   72.9240  145.8060 C.3   193  MET193      0.0413
    107  CG        72.7290   73.9470  146.4790 C.3   193  MET193      0.0598
    108  SD        73.6320   75.2630  147.2730 S.3   193  MET193     -0.1393
    109  CE        72.2060   76.2320  148.1470 C.3   193  MET193      0.0692
    110  N         71.1150   68.3160  143.1340 N.3   196  LEU196     -0.1245
    111  CA        70.2820   68.9730  142.1460 C.3   196  LEU196      0.1561
    112  C         71.0860   69.2790  140.8470 C.2   196  LEU196      0.2260
    113  O         70.5120   69.3540  139.7340 O.2   196  LEU196     -0.2867
    114  CB        69.7540   70.2590  142.7440 C.3   196  LEU196      0.0270
    115  CG        68.2870   70.5520  142.6080 C.3   196  LEU196      0.0019
    116  CD1       67.5300   69.3380  143.0130 C.3   196  LEU196      0.0001
    117  CD2       67.9590   71.7280  143.5310 C.3   196  LEU196      0.0001
    118  N         71.1190   66.0000  138.9650 N.3   199  LEU199     -0.1231
    119  CA        69.7640   65.7580  138.5410 C.3   199  LEU199      0.1693
    120  C         69.4480   66.5240  137.2650 C.2   199  LEU199      0.2592
    121  O         68.7190   66.0330  136.3550 O.2   199  LEU199     -0.2718
    122  CB        68.7820   66.1960  139.6180 C.3   199  LEU199      0.0284
    123  CG        67.3700   65.7860  139.1830 C.3   199  LEU199      0.0019
    124  CD1       67.2540   64.2750  139.1800 C.3   199  LEU199      0.0001
    125  CD2       66.2220   66.4580  139.9340 C.3   199  LEU199      0.0001
    126  N         70.0230   67.7000  137.1540 N.am  200  HIS200     -0.1976
    127  CA        69.7620   68.5140  135.9930 C.3   200  HIS200      0.1656
    128  C         70.3210   68.0610  134.6960 C.2   200  HIS200      0.2291
    129  O         69.7980   68.4110  133.6730 O.2   200  HIS200     -0.2864
    130  CB        69.9400   69.9840  136.2660 C.3   200  HIS200      0.0771
    131  CG        68.8950   70.5340  137.1850 C.ar  200  HIS200      0.0820
    132  ND1       69.0200   71.7510  137.8170 N.ar  200  HIS200     -0.2267
    133  CD2       67.7040   70.0130  137.5930 C.ar  200  HIS200      0.1154
    134  CE1       67.9500   71.9620  138.5670 C.ar  200  HIS200      0.1986
    135  NE2       67.1360   70.9250  138.4430 N.ar  200  HIS200     -0.2212
    136  N         63.9500   65.0290  135.3740 N.3   204  SER204     -0.1217
    137  CA        63.2870   64.0340  136.2020 C.3   204  SER204      0.1889
    138  C         62.8370   62.7660  135.4870 C.2   204  SER204      0.2288
    139  O         62.6250   62.7520  134.2800 O.2   204  SER204     -0.2866
    140  CB        62.0790   64.6680  136.9140 C.3   204  SER204      0.2089
    141  OG        62.4720   65.3850  138.0810 O.3   204  SER204     -0.2183
    142  N         58.5050   74.0290  134.3790 N.3   219  PHE219     -0.1241
    143  CA        58.2970   73.8740  135.7800 C.3   219  PHE219      0.1605
    144  C         57.4170   75.1000  136.2380 C.2   219  PHE219      0.2264
    145  O         56.6370   74.9730  137.1460 O.2   219  PHE219     -0.2867
    146  CB        59.6470   73.8530  136.4570 C.3   219  PHE219      0.0534
    147  CG        59.6050   73.4750  137.8540 C.ar  219  PHE219     -0.0203
    148  CD1       59.4680   74.4350  138.8430 C.ar  219  PHE219     -0.0042
    149  CD2       59.7660   72.1690  138.2170 C.ar  219  PHE219     -0.0042
    150  CE1       59.4430   74.0850  140.1690 C.ar  219  PHE219     -0.0003
    151  CE2       59.7350   71.8000  139.5310 C.ar  219  PHE219     -0.0003
    152  CZ        59.5730   72.7540  140.5180 C.ar  219  PHE219     -0.0000
    153  N         54.6450   72.9500  138.2240 N.3   223  TYR223     -0.1241
    154  CA        55.2880   72.4120  139.4150 C.3   223  TYR223      0.1605
    155  C         55.6300   73.3930  140.4810 C.2   223  TYR223      0.2264
    156  O         56.0240   72.9890  141.5540 O.2   223  TYR223     -0.2867
    157  CB        56.4470   71.5150  139.0800 C.3   223  TYR223      0.0534
    158  CG        56.0040   70.3880  138.2950 C.ar  223  TYR223     -0.0201
    159  CD1       55.0400   69.5160  138.7980 C.ar  223  TYR223     -0.0009
    160  CD2       56.4290   70.2250  136.9880 C.ar  223  TYR223     -0.0009
    161  CE1       54.5450   68.4600  138.0240 C.ar  223  TYR223      0.0417
    162  CE2       55.9670   69.1590  136.2090 C.ar  223  TYR223      0.0417
    163  CZ        55.0180   68.2840  136.7310 C.ar  223  TYR223      0.1957
    164  OH        54.5470   67.2470  135.9590 O.3   223  TYR223     -0.2866
    165  N         52.1860   73.1010  142.2680 N.3   226  LYS226     -0.1231
    166  CA        51.9790   71.7580  142.8240 C.3   226  LYS226      0.1693
    167  C         52.9060   71.5700  144.0500 C.2   226  LYS226      0.2592
    168  O         52.5180   70.9170  145.0330 O.2   226  LYS226     -0.2718
    169  CB        52.1750   70.6720  141.7560 C.3   226  LYS226      0.0285
    170  CG        52.3210   69.1890  142.2440 C.3   226  LYS226      0.0035
    171  CD        51.8130   68.1480  141.1460 C.3   226  LYS226      0.0206
    172  CE        52.4250   66.6960  141.3290 C.3   226  LYS226      0.1093
    173  NZ        53.9990   66.6960  141.4340 N.3   226  LYS226     -0.1314
    174  N         54.0760   72.2380  144.0420 N.am  227  ASP227     -0.1974
    175  CA        55.0130   72.1530  145.1860 C.3   227  ASP227      0.1709
    176  C         54.4870   73.0110  146.3210 C.2   227  ASP227      0.2293
    177  O         54.7080   72.7120  147.5190 O.2   227  ASP227     -0.2864
    178  CB        56.3870   72.6760  144.8180 C.3   227  ASP227      0.1436
    179  CG        57.1920   71.7030  144.0530 C.2   227  ASP227      0.3671
    180  OD1       56.7070   70.5620  143.7790 O.co2 227  ASP227     -0.2456
    181  OD2       58.3450   72.0000  143.6700 O.co2 227  ASP227     -0.2456
@<TRIPOS>BOND
     1    30    29    1
     2    30    31    1
     3    29    26    1
     4    26    25    1
     5    26    27    1
     6    31    25    1
     7    25    19   am
     8    35    34    2
     9    27    28    2
    10    27    32   am
    11    32    33    1
    12    34    33    1
    13    19    20    2
    14    19    18    1
    15    17    18    1
    16    18    21    1
    17    33    36    1
    18   129   128    2
    19   139   138    2
    20   142   143    1
    21   128   127    1
    22    21    22    1
    23    23    22    1
    24    22    24    1
    25   136   137    1
    26   138   137    1
    27   143   144    1
    28   143   146    1
    29   164   163    1
    30   127   130    1
    31   127   126    1
    32   137   140    1
    33   162   163   ar
    34   162   160   ar
    35   144   145    2
    36   130   131    1
    37    37    38    1
    38   121   120    2
    39   146   147    1
    40   163   161   ar
    41   140   141    1
    42     1     2    1
    43   160   158   ar
    44   126   120   am
    45   131   133   ar
    46   131   132   ar
    47   120   119    1
    48    43    41    1
    49   133   135   ar
    50    38    41    1
    51    38    39    1
    52    42    41    1
    53    42    44    1
    54   132   134   ar
    55     8     9    2
    56     8     7    1
    57   147   149   ar
    58   147   148   ar
    59     2     3    1
    60     2     5    1
    61   161   159   ar
    62   149   151   ar
    63   153   154    1
    64     6     3   am
    65     6     7    1
    66   158   159   ar
    67   158   157    1
    68     3     4    2
    69   135   134   ar
    70    40    39    2
    71   119   118    1
    72   119   122    1
    73     7    10    1
    74   148   150   ar
    75   157   154    1
    76   124   123    1
    77   123   122    1
    78   123   125    1
    79    56    58   ar
    80    56    54   ar
    81   154   155    1
    82   151   152   ar
    83    58    57   ar
    84    53    54   ar
    85    53    51   ar
    86   113   112    2
    87    54    52   ar
    88    10    11    1
    89   150   152   ar
    90    51    50   ar
    91    57    55   ar
    92   155   156    2
    93    52    50   ar
    94    52    55   ar
    95   112   111    1
    96    50    49    1
    97    11    13   ar
    98    11    12   ar
    99   171   172    1
   100   171   170    1
   101   172   173    1
   102    13    15   ar
   103    12    14   ar
   104    49    46    1
   105   169   170    1
   106   169   166    1
   107   111   114    1
   108   111   110    1
   109   165   166    1
   110    15    16   ar
   111    14    16   ar
   112   115   114    1
   113   115   116    1
   114   115   117    1
   115   166   167    1
   116    46    45    1
   117    46    47    1
   118   105   104    2
   119   181   179   ar
   120   180   179   ar
   121    48    47    2
   122   174   167   am
   123   174   175    1
   124   167   168    2
   125   179   178    1
   126   104   103    1
   127   178   175    1
   128   175   176    1
   129   103   106    1
   130   103   102    1
   131   106   107    1
   132   100    99    2
   133   176   177    2
   134   107   108    1
   135    68    67    1
   136    67    64    1
   137   102    99   am
   138    99    98    1
   139    60    59    1
   140    60    61    1
   141    63    61   am
   142    63    64    1
   143   108   109    1
   144    61    62    2
   145    64    65    1
   146    98    97    1
   147    98   101    1
   148    65    66    2
   149    92    91    2
   150    91    90    1
   151    70    69    1
   152    70    71    1
   153    94    93    1
   154    94    95    1
   155    71    72    2
   156    90    93    1
   157    90    89    1
   158    95    96    1
   159    80    78    1
   160    87    85    1
   161    88    86    1
   162    77    78    1
   163    77    74    1
   164    78    79    1
   165    85    86    1
   166    85    82    1
   167    73    74    1
   168    81    82    1
   169    81    75   am
   170    74    75    1
   171    82    83    1
   172    75    76    2
   173    83    84    2
