@<TRIPOS>MOLECULE
tmp/1nu1C02.pdb
 166 157 0 0 0
SMALL
GASTEIGER

@<TRIPOS>ATOM
      1  N         66.5910   76.2240  135.6410 N.3    16  ALA16      -0.1231
      2  CA        66.4590   75.2210  136.6640 C.3    16  ALA16       0.1694
      3  C         65.0380   75.1600  137.1610 C.2    16  ALA16       0.2592
      4  O         64.6040   74.1120  137.6660 O.2    16  ALA16      -0.2718
      5  CB        67.3990   75.4790  137.7720 C.3    16  ALA16       0.0304
      6  N         64.2930   76.2660  137.0360 N.am   17  PHE17      -0.1976
      7  CA        62.9000   76.2550  137.5150 C.3    17  PHE17       0.1639
      8  C         61.9120   77.0570  136.6810 C.2    17  PHE17       0.2290
      9  O         60.7660   77.2450  137.0920 O.2    17  PHE17      -0.2864
     10  CB        62.7960   76.7220  138.9820 C.3    17  PHE17       0.0560
     11  CG        63.9920   76.3810  139.8110 C.ar   17  PHE17      -0.0200
     12  CD1       64.1470   75.1120  140.3500 C.ar   17  PHE17      -0.0042
     13  CD2       64.9780   77.3160  140.0280 C.ar   17  PHE17      -0.0042
     14  CE1       65.2880   74.7790  141.0710 C.ar   17  PHE17      -0.0003
     15  CE2       66.0990   76.9970  140.7670 C.ar   17  PHE17      -0.0003
     16  CZ        66.2610   75.7170  141.2770 C.ar   17  PHE17      -0.0000
     17  N         63.3480   75.0430  131.9940 N.3    20  LEU20      -0.1245
     18  CA        63.6760   73.6420  132.0700 C.3    20  LEU20       0.1561
     19  C         62.4450   72.7490  131.8100 C.2    20  LEU20       0.2260
     20  O         61.3760   72.8820  132.4590 O.2    20  LEU20      -0.2867
     21  CB        64.2120   73.3530  133.4660 C.3    20  LEU20       0.0270
     22  CG        63.6970   72.0370  133.9980 C.3    20  LEU20       0.0019
     23  CD1       64.7220   70.9490  133.7950 C.3    20  LEU20       0.0001
     24  CD2       63.2690   72.1680  135.3880 C.3    20  LEU20       0.0001
     25  N         60.1880   69.3400  131.6520 N.3    22  ALA22      -0.1245
     26  CA        59.8470   68.2610  132.5680 C.3    22  ALA22       0.1562
     27  C         58.7110   67.3810  131.9970 C.2    22  ALA22       0.2260
     28  O         57.8530   67.8550  131.2580 O.2    22  ALA22      -0.2867
     29  CB        59.4320   68.8410  133.8400 C.3    22  ALA22       0.0290
     30  N         55.1000   63.0950  135.0740 N.3    26  ILE26      -0.1245
     31  CA        55.3820   62.7700  136.4960 C.3    26  ILE26       0.1561
     32  C         54.2650   63.0150  137.4250 C.2    26  ILE26       0.2260
     33  O         53.5430   64.0080  137.2850 O.2    26  ILE26      -0.2867
     34  CB        56.5880   63.4960  137.0440 C.3    26  ILE26       0.0252
     35  CG1       56.6170   64.9330  136.5230 C.3    26  ILE26       0.0019
     36  CG2       57.8290   62.7470  136.7240 C.3    26  ILE26       0.0019
     37  CD1       57.0680   65.8950  137.5560 C.3    26  ILE26       0.0001
     38  N         56.7830   62.9020  142.7800 N.3    30  TRP30      -0.1241
     39  CA        57.8900   63.7420  142.3930 C.3    30  TRP30       0.1605
     40  C         57.7950   65.0580  143.1990 C.2    30  TRP30       0.2264
     41  O         58.1790   66.1380  142.7470 O.2    30  TRP30      -0.2867
     42  CB        57.8890   63.9680  140.8860 C.3    30  TRP30       0.0550
     43  CG        58.7080   62.9760  140.1190 C.ar   30  TRP30       0.0003
     44  CD1       59.9990   63.1320  139.6890 C.ar   30  TRP30       0.0946
     45  CD2       58.3080   61.6720  139.7050 C.ar   30  TRP30       0.0152
     46  NE1       60.4250   62.0020  139.0370 N.ar   30  TRP30      -0.2442
     47  CE2       59.4110   61.0860  139.0310 C.ar   30  TRP30       0.0810
     48  CE3       57.1200   60.9330  139.8170 C.ar   30  TRP30       0.0012
     49  CZ2       59.3620   59.8030  138.4760 C.ar   30  TRP30       0.0191
     50  CZ3       57.0730   59.6510  139.2660 C.ar   30  TRP30       0.0001
     51  CH2       58.1890   59.1000  138.6040 C.ar   30  TRP30       0.0015
     52  N         60.8680   65.6410  146.3030 N.3    33  GLY33      -0.1210
     53  CA        62.1340   66.1710  145.8540 C.3    33  GLY33       0.1956
     54  C         62.2410   67.5940  146.3640 C.2    33  GLY33       0.2612
     55  O         63.2040   67.9660  147.0450 O.2    33  GLY33      -0.2717
     56  N         61.2180   68.3840  146.0570 N.am   34  SER34      -0.1952
     57  CA        61.1680   69.7570  146.4980 C.3    34  SER34       0.1924
     58  C         60.7740   69.7880  147.9790 C.2    34  SER34       0.2314
     59  O         61.1510   70.7270  148.7250 O.2    34  SER34      -0.2863
     60  CB        60.1850   70.5670  145.6370 C.3    34  SER34       0.2116
     61  OG        58.8270   70.3790  146.0210 O.3    34  SER34      -0.2180
     62  N         63.7490   69.7100  149.9760 N.3    37  GLY37      -0.1210
     63  CA        64.3730   71.0050  150.0490 C.3    37  GLY37       0.1956
     64  C         63.7270   71.8720  151.1000 C.2    37  GLY37       0.2611
     65  O         64.4350   72.5230  151.9080 O.2    37  GLY37      -0.2717
     66  N         62.3890   71.8830  151.1040 N.am   38  ILE38      -0.1979
     67  CA        61.6340   72.6730  152.1010 C.3    38  ILE38       0.1595
     68  C         62.0530   72.2200  153.5040 C.2    38  ILE38       0.2287
     69  O         62.4420   73.0230  154.3450 O.2    38  ILE38      -0.2864
     70  CB        60.1020   72.4800  151.9240 C.3    38  ILE38       0.0276
     71  CG1       59.6660   72.7700  150.4760 C.3    38  ILE38       0.0022
     72  CG2       59.3270   73.3580  152.9420 C.3    38  ILE38       0.0022
     73  CD1       58.8850   74.0500  150.3280 C.3    38  ILE38       0.0001
     74  N         65.4550   73.5810  154.4730 N.3    41  ILE41      -0.1245
     75  CA        65.5320   74.9840  154.8970 C.3    41  ILE41       0.1561
     76  C         64.7100   75.2910  156.1080 C.2    41  ILE41       0.2260
     77  O         65.0570   76.1670  156.8730 O.2    41  ILE41      -0.2867
     78  CB        65.3550   76.0690  153.7140 C.3    41  ILE41       0.0252
     79  CG1       63.8970   76.1680  153.2460 C.3    41  ILE41       0.0019
     80  CG2       66.3710   75.8370  152.5320 C.3    41  ILE41       0.0019
     81  CD1       63.4410   77.6100  152.9260 C.3    41  ILE41       0.0001
     82  N         71.0400   68.1420  142.2160 N.3   196  LEU196     -0.1245
     83  CA        70.2580   68.8100  141.1900 C.3   196  LEU196      0.1561
     84  C         71.0510   69.0540  139.8650 C.2   196  LEU196      0.2260
     85  O         70.5150   68.7650  138.8150 O.2   196  LEU196     -0.2867
     86  CB        69.6750   70.1430  141.7220 C.3   196  LEU196      0.0270
     87  CG        68.1920   70.4260  141.4340 C.3   196  LEU196      0.0019
     88  CD1       67.6520   69.4600  140.3640 C.3   196  LEU196      0.0001
     89  CD2       67.3890   70.2430  142.6830 C.3   196  LEU196      0.0001
     90  N         71.1830   65.9020  138.1920 N.3   199  LEU199     -0.1231
     91  CA        69.8170   65.5190  137.8030 C.3   199  LEU199      0.1693
     92  C         69.3990   66.1930  136.4830 C.2   199  LEU199      0.2592
     93  O         69.0160   65.5310  135.4970 O.2   199  LEU199     -0.2718
     94  CB        68.7800   65.8850  138.8650 C.3   199  LEU199      0.0284
     95  CG        67.4470   65.4630  138.2210 C.3   199  LEU199      0.0019
     96  CD1       67.2510   63.9710  138.1940 C.3   199  LEU199      0.0001
     97  CD2       66.2060   66.1710  138.6590 C.3   199  LEU199      0.0001
     98  N         69.5160   67.5130  136.4880 N.am  200  HIS200     -0.1976
     99  CA        69.1600   68.3560  135.3820 C.3   200  HIS200      0.1656
    100  C         69.8940   68.0410  134.0800 C.2   200  HIS200      0.2291
    101  O         69.5060   68.5140  132.9720 O.2   200  HIS200     -0.2864
    102  CB        69.3780   69.8100  135.7740 C.3   200  HIS200      0.0771
    103  CG        68.1890   70.4430  136.4300 C.ar  200  HIS200      0.0820
    104  ND1       68.2870   71.2080  137.5700 N.ar  200  HIS200     -0.2267
    105  CD2       66.8830   70.4540  136.0840 C.ar  200  HIS200      0.1154
    106  CE1       67.0940   71.6710  137.8910 C.ar  200  HIS200      0.1986
    107  NE2       66.2220   71.2190  137.0110 N.ar  200  HIS200     -0.2212
    108  N         64.1390   64.8120  134.3010 N.3   204  SER204     -0.1217
    109  CA        63.5900   63.8630  135.2460 C.3   204  SER204      0.1889
    110  C         63.0220   62.6230  134.6000 C.2   204  SER204      0.2288
    111  O         62.5180   62.6830  133.4950 O.2   204  SER204     -0.2866
    112  CB        62.5610   64.5280  136.2110 C.3   204  SER204      0.2089
    113  OG        63.1880   65.2190  137.3170 O.3   204  SER204     -0.2183
    114  N         58.6900   73.7950  133.4610 N.3   219  PHE219     -0.1241
    115  CA        58.4240   73.8820  134.8910 C.3   219  PHE219      0.1605
    116  C         57.4540   75.0800  135.1550 C.2   219  PHE219      0.2264
    117  O         56.5440   74.9440  135.9620 O.2   219  PHE219     -0.2867
    118  CB        59.7210   74.0770  135.6300 C.3   219  PHE219      0.0534
    119  CG        59.6420   73.7120  137.0450 C.ar  219  PHE219     -0.0203
    120  CD1       59.3850   74.6670  138.0150 C.ar  219  PHE219     -0.0042
    121  CD2       59.7930   72.3910  137.4320 C.ar  219  PHE219     -0.0042
    122  CE1       59.2960   74.3050  139.3620 C.ar  219  PHE219     -0.0003
    123  CE2       59.7210   72.0320  138.7480 C.ar  219  PHE219     -0.0003
    124  CZ        59.4630   72.9780  139.7250 C.ar  219  PHE219     -0.0000
    125  N         54.8520   72.5000  137.2810 N.3   223  TYR223     -0.1241
    126  CA        55.5240   71.9380  138.4150 C.3   223  TYR223      0.1605
    127  C         55.9150   73.0380  139.3400 C.2   223  TYR223      0.2264
    128  O         56.5230   72.8170  140.3860 O.2   223  TYR223     -0.2867
    129  CB        56.6920   71.1110  137.9700 C.3   223  TYR223      0.0534
    130  CG        56.1750   69.9750  137.1980 C.ar  223  TYR223     -0.0201
    131  CD1       55.0050   69.3750  137.5840 C.ar  223  TYR223     -0.0009
    132  CD2       56.7290   69.6030  136.0080 C.ar  223  TYR223     -0.0009
    133  CE1       54.4690   68.3960  136.8900 C.ar  223  TYR223      0.0417
    134  CE2       56.1630   68.6190  135.2760 C.ar  223  TYR223      0.0417
    135  CZ        55.0170   68.0220  135.7360 C.ar  223  TYR223      0.1957
    136  OH        54.4210   66.9950  135.0730 O.3   223  TYR223     -0.2866
    137  N         52.3320   72.5100  141.0530 N.3   226  LYS226     -0.1231
    138  CA        52.1090   71.1710  141.5930 C.3   226  LYS226      0.1693
    139  C         53.1550   70.9640  142.6840 C.2   226  LYS226      0.2592
    140  O         53.1200   69.9900  143.4280 O.2   226  LYS226     -0.2718
    141  CB        52.2080   70.0920  140.5240 C.3   226  LYS226      0.0285
    142  CG        51.8480   68.6830  140.9760 C.3   226  LYS226      0.0035
    143  CD        51.7240   67.7620  139.7610 C.3   226  LYS226      0.0206
    144  CE        52.4740   66.4490  139.9960 C.3   226  LYS226      0.1093
    145  NZ        53.8730   66.7170  140.4970 N.3   226  LYS226     -0.1314
    146  N         54.1070   71.8850  142.7590 N.am  227  ASP227     -0.1960
    147  CA        55.0580   71.8670  143.8530 C.3   227  ASP227      0.1840
    148  C         54.5110   72.6420  145.0740 C.2   227  ASP227      0.2621
    149  O         54.7520   72.2420  146.2090 O.2   227  ASP227     -0.2715
    150  CB        56.3850   72.4460  143.4200 C.3   227  ASP227      0.1450
    151  CG        57.4030   71.4130  143.2130 C.2   227  ASP227      0.3671
    152  OD1       57.0130   70.2510  143.0330 O.co2 227  ASP227     -0.2456
    153  OD2       58.6220   71.6700  143.2390 O.co2 227  ASP227     -0.2456
    154  N         53.8110   73.7570  144.8310 N.am  228  ILE228     -0.1977
    155  CA        53.2530   74.5610  145.9190 C.3   228  ILE228      0.1596
    156  C         52.2880   73.7130  146.7130 C.2   228  ILE228      0.2287
    157  O         52.5660   73.4180  147.8810 O.2   228  ILE228     -0.2864
    158  CB        52.5550   75.8630  145.4100 C.3   228  ILE228      0.0276
    159  CG1       53.5810   76.9530  145.1010 C.3   228  ILE228      0.0022
    160  CG2       51.5490   76.4070  146.4470 C.3   228  ILE228      0.0022
    161  CD1       52.9800   78.0600  144.2800 C.3   228  ILE228      0.0001
    162  N         53.7920   71.5840  148.8120 N.3   231  ALA231     -0.1245
    163  CA        54.3860   72.1510  149.9970 C.3   231  ALA231      0.1562
    164  C         53.2710   72.4060  151.0170 C.2   231  ALA231      0.2260
    165  O         53.4310   72.1130  152.2280 O.2   231  ALA231     -0.2867
    166  CB        55.1350   73.4160  149.6740 C.3   231  ALA231      0.0290
@<TRIPOS>BOND
     1    28    27    2
     2    25    26    1
     3    19    18    1
     4    19    20    2
     5    17    18    1
     6    27    26    1
     7    18    21    1
     8    26    29    1
     9   101   100    2
    10   114   115    1
    11    21    22    1
    12   111   110    2
    13    23    22    1
    14    22    24    1
    15   100    99    1
    16   108   109    1
    17   110   109    1
    18   115   116    1
    19   115   118    1
    20   136   135    1
    21    30    31    1
    22   116   117    2
    23   109   112    1
    24   134   135   ar
    25   134   132   ar
    26    99   102    1
    27    99    98    1
    28    93    92    2
    29   118   119    1
    30     1     2    1
    31   135   133   ar
    32   102   103    1
    33   132   130   ar
    34   105   103   ar
    35   105   107   ar
    36   112   113    1
    37   103   104   ar
    38    92    98   am
    39    92    91    1
    40    31    34    1
    41    31    32    1
    42    35    34    1
    43    35    37    1
    44     2     3    1
    45     2     5    1
    46     8     9    2
    47     8     7    1
    48    36    34    1
    49   133   131   ar
    50   107   106   ar
    51     6     3   am
    52     6     7    1
    53   119   121   ar
    54   119   120   ar
    55     3     4    2
    56   130   131   ar
    57   130   129    1
    58   125   126    1
    59    33    32    2
    60   121   123   ar
    61     7    10    1
    62   104   106   ar
    63    91    90    1
    64    91    94    1
    65   129   126    1
    66   120   122   ar
    67    96    95    1
    68    95    97    1
    69    95    94    1
    70   126   127    1
    71    49    51   ar
    72    49    47   ar
    73    51    50   ar
    74   123   124   ar
    75    85    84    2
    76    10    11    1
    77    47    46   ar
    78    47    45   ar
    79    46    44   ar
    80    50    48   ar
    81   127   128    2
    82   122   124   ar
    83    44    43   ar
    84    45    48   ar
    85    45    43   ar
    86   143   144    1
    87   143   142    1
    88    11    13   ar
    89    11    12   ar
    90    84    83    1
    91   144   145    1
    92    13    15   ar
    93    43    42    1
    94    12    14   ar
    95    88    87    1
    96   141   142    1
    97   141   138    1
    98    15    16   ar
    99    42    39    1
   100   137   138    1
   101    14    16   ar
   102    83    86    1
   103    83    82    1
   104    87    86    1
   105    87    89    1
   106   138   139    1
   107    39    38    1
   108    39    40    1
   109   139   146   am
   110   139   140    2
   111    41    40    2
   112   146   147    1
   113   152   151   ar
   114   151   153   ar
   115   151   150    1
   116   150   147    1
   117   147   148    1
   118   161   159    1
   119   154   148   am
   120   154   155    1
   121   148   149    2
   122   159   158    1
   123   158   155    1
   124   158   160    1
   125    60    61    1
   126    60    57    1
   127    53    52    1
   128    53    54    1
   129   155   156    1
   130    56    54   am
   131    56    57    1
   132    54    55    2
   133    57    58    1
   134   156   157    2
   135    58    59    2
   136   162   163    1
   137   166   163    1
   138    62    63    1
   139   163   164    1
   140    63    64    1
   141    73    71    1
   142    71    70    1
   143   164   165    2
   144    64    66   am
   145    64    65    2
   146    66    67    1
   147    70    67    1
   148    70    72    1
   149    67    68    1
   150    80    78    1
   151    81    79    1
   152    79    78    1
   153    68    69    2
   154    78    75    1
   155    74    75    1
   156    75    76    1
   157    76    77    2
