@<TRIPOS>MOLECULE
tmp/1nu2A00.pdb
 214 208 0 0 0
SMALL
GASTEIGER

@<TRIPOS>ATOM
      1  N         12.1120   -5.2090   20.6240 N.3    33  ALA33      -0.1231
      2  CA        11.0700   -5.2210   19.6030 C.3    33  ALA33       0.1694
      3  C          9.7570   -4.6090   20.0670 C.2    33  ALA33       0.2591
      4  O          8.8650   -4.3620   19.2540 O.2    33  ALA33      -0.2718
      5  CB        10.8280   -6.6390   19.1420 C.3    33  ALA33       0.0304
      6  N          9.6330   -4.3600   21.3680 N.am   34  ARG34      -0.1980
      7  CA         8.3910   -3.8170   21.9020 C.3    34  ARG34       0.1597
      8  C          8.5570   -3.1660   23.2700 C.2    34  ARG34       0.2287
      9  O          9.6260   -3.2320   23.8800 O.2    34  ARG34      -0.2864
     10  CB         7.3590   -4.9410   22.0070 C.3    34  ARG34       0.0334
     11  CG         7.7970   -6.0770   22.9330 C.3    34  ARG34       0.0492
     12  CD         6.8550   -7.2690   22.8600 C.3    34  ARG34       0.2205
     13  NE         6.8440   -7.8730   21.5290 N.pl3  34  ARG34      -0.0865
     14  CZ         7.8370   -8.5920   21.0170 C.cat  34  ARG34       0.5346
     15  NH1        8.9380   -8.8140   21.7260 N.pl3  34  ARG34       0.1354
     16  NH2        7.7330   -9.0840   19.7880 N.pl3  34  ARG34       0.1354
     17  N          6.0320   -0.2050   25.8740 N.3    36  ASP36      -0.1239
     18  CA         5.4430    1.1220   25.9650 C.3    36  ASP36       0.1674
     19  C          6.5020    2.1490   26.3450 C.2    36  ASP36       0.2266
     20  O          6.6500    3.1750   25.6890 O.2    36  ASP36      -0.2867
     21  CB         4.3120    1.1120   27.0000 C.3    36  ASP36       0.1410
     22  CG         3.7030    2.4820   27.2130 C.2    36  ASP36       0.3668
     23  OD1        3.2920    3.1130   26.2170 O.co2  36  ASP36      -0.2456
     24  OD2        3.6320    2.9280   28.3790 O.co2  36  ASP36      -0.2456
     25  N          4.8000   -5.8990    6.6570 N.3    88  VAL88      -0.1231
     26  CA         4.0140   -6.3050    7.8110 C.3    88  VAL88       0.1692
     27  C          4.8160   -7.1960    8.7640 C.2    88  VAL88       0.2592
     28  O          4.8000   -6.9870    9.9830 O.2    88  VAL88      -0.2718
     29  CB         2.7370   -7.0420    7.3600 C.3    88  VAL88       0.0266
     30  CG1        2.0230   -7.6240    8.5560 C.3    88  VAL88       0.0020
     31  CG2        1.8130   -6.0650    6.6260 C.3    88  VAL88       0.0020
     32  N          5.5430   -8.1650    8.2150 N.am   89  HIS89      -0.1962
     33  CA         6.3090   -9.0800    9.0580 C.3    89  HIS89       0.1787
     34  C          7.4970   -8.4590    9.7970 C.2    89  HIS89       0.2620
     35  O          8.0460   -9.0850   10.7090 O.2    89  HIS89      -0.2715
     36  CB         6.7900  -10.2850    8.2420 C.3    89  HIS89       0.0785
     37  CG         7.8970   -9.9640    7.2840 C.ar   89  HIS89       0.0821
     38  ND1        7.6640   -9.5740    5.9860 N.ar   89  HIS89      -0.2267
     39  CD2        9.2380   -9.9510    7.4540 C.ar   89  HIS89       0.1154
     40  CE1        8.8220   -9.3340    5.3900 C.ar   89  HIS89       0.1986
     41  NE2        9.7900   -9.5540    6.2560 N.ar   89  HIS89      -0.2212
     42  N          7.8870   -7.2430    9.4130 N.am   90  GLU90      -0.1963
     43  CA         9.0100   -6.5440   10.0470 C.3    90  GLU90       0.1733
     44  C          8.5480   -5.5630   11.1250 C.2    90  GLU90       0.2616
     45  O          9.3690   -5.0150   11.8560 O.2    90  GLU90      -0.2715
     46  CB         9.8090   -5.7340    9.0200 C.3    90  GLU90       0.0429
     47  CG        10.2890   -6.4750    7.8080 C.3    90  GLU90       0.1163
     48  CD        11.0990   -5.5780    6.8820 C.2    90  GLU90       0.3649
     49  OE1       10.5790   -4.5180    6.4590 O.co2  90  GLU90      -0.2457
     50  OE2       12.2620   -5.9340    6.5860 O.co2  90  GLU90      -0.2457
     51  N          7.2460   -5.3150   11.1990 N.am   91  ILE91      -0.1963
     52  CA         6.7150   -4.3870   12.1920 C.3    91  ILE91       0.1727
     53  C          6.3410   -5.1940   13.4240 C.2    91  ILE91       0.2617
     54  O          5.5090   -6.0900   13.3520 O.2    91  ILE91      -0.2715
     55  CB         5.4540   -3.6690   11.6880 C.3    91  ILE91       0.0290
     56  CG1        5.7200   -3.0400   10.3190 C.3    91  ILE91       0.0022
     57  CG2        5.0350   -2.6030   12.6950 C.3    91  ILE91       0.0023
     58  CD1        6.8000   -1.9980   10.3360 C.3    91  ILE91       0.0001
     59  N          6.9400   -4.8650   14.5590 N.am   92  SER92      -0.1936
     60  CA         6.6610   -5.6230   15.7680 C.3    92  SER92       0.2055
     61  C          5.7440   -4.9730   16.7980 C.2    92  SER92       0.2643
     62  O          5.0710   -5.6740   17.5560 O.2    92  SER92      -0.2714
     63  CB         7.9820   -5.9860   16.4460 C.3    92  SER92       0.2130
     64  OG         8.6940   -4.8160   16.8080 O.3    92  SER92      -0.2179
     65  N          5.6840   -3.6460   16.8160 N.am   93  TYR93      -0.1959
     66  CA         4.8940   -2.9820   17.8480 C.3    93  TYR93       0.1771
     67  C          4.4570   -1.5810   17.4180 C.2    93  TYR93       0.2619
     68  O          5.2280   -0.8470   16.8010 O.2    93  TYR93      -0.2715
     69  CB         5.7750   -2.8980   19.1030 C.3    93  TYR93       0.0574
     70  CG         5.1100   -2.4350   20.3800 C.ar   93  TYR93      -0.0198
     71  CD1        4.2380   -3.2670   21.0790 C.ar   93  TYR93      -0.0009
     72  CD2        5.3930   -1.1770   20.9110 C.ar   93  TYR93      -0.0009
     73  CE1        3.6660   -2.8590   22.2830 C.ar   93  TYR93       0.0417
     74  CE2        4.8290   -0.7560   22.1110 C.ar   93  TYR93       0.0417
     75  CZ         3.9670   -1.6020   22.7930 C.ar   93  TYR93       0.1957
     76  OH         3.4130   -1.1830   23.9800 O.3    93  TYR93      -0.2866
     77  N          3.2180   -1.2200   17.7340 N.am   94  ILE94      -0.1963
     78  CA         2.7010    0.1040   17.3980 C.3    94  ILE94       0.1727
     79  C          2.4740    0.8540   18.7000 C.2    94  ILE94       0.2616
     80  O          1.9410    0.2950   19.6590 O.2    94  ILE94      -0.2715
     81  CB         1.3570    0.0230   16.6440 C.3    94  ILE94       0.0290
     82  CG1        1.5150   -0.7990   15.3620 C.3    94  ILE94       0.0022
     83  CG2        0.8600    1.4260   16.3280 C.3    94  ILE94       0.0023
     84  CD1        2.6100   -0.3000   14.4320 C.3    94  ILE94       0.0001
     85  N          2.8700    2.1180   18.7430 N.am   95  ALA95      -0.1963
     86  CA         2.6990    2.8860   19.9640 C.3    95  ALA95       0.1728
     87  C          2.2460    4.3120   19.7100 C.2    95  ALA95       0.2616
     88  O          2.8140    5.0180   18.8800 O.2    95  ALA95      -0.2715
     89  CB         4.0040    2.9030   20.7480 C.3    95  ALA95       0.0334
     90  N          1.2180    4.7360   20.4350 N.am   96  LYS96      -0.1977
     91  CA         0.7330    6.0950   20.3000 C.3    96  LYS96       0.1596
     92  C          1.5580    6.9430   21.2510 C.2    96  LYS96       0.2287
     93  O          2.0960    6.4410   22.2370 O.2    96  LYS96      -0.2864
     94  CB        -0.7440    6.1900   20.6810 C.3    96  LYS96       0.0298
     95  CG        -1.3270    7.5790   20.4930 C.3    96  LYS96       0.0038
     96  CD        -2.8390    7.5820   20.6900 C.3    96  LYS96       0.0206
     97  CE        -3.4060    8.9850   20.5350 C.3    96  LYS96       0.1093
     98  NZ        -2.8010    9.9220   21.5300 N.3    96  LYS96      -0.1314
     99  N          1.5150    9.2330   24.0470 N.3    98  ILE98      -0.1245
    100  CA         0.5780    9.6610   25.0830 C.3    98  ILE98       0.1561
    101  C          0.6140   11.1530   25.3740 C.2    98  ILE98       0.2260
    102  O         -0.2500   11.6690   26.0770 O.2    98  ILE98      -0.2867
    103  CB         0.7830    8.8780   26.4100 C.3    98  ILE98       0.0252
    104  CG1        2.2610    8.5480   26.6200 C.3    98  ILE98       0.0019
    105  CG2       -0.0580    7.6130   26.3970 C.3    98  ILE98       0.0019
    106  CD1        3.1160    9.7400   26.9640 C.3    98  ILE98       0.0001
    107  N         12.0290   -4.1320   12.1730 N.3   109  GLY109     -0.1210
    108  CA        13.3160   -4.7960   12.0730 C.3   109  GLY109      0.1956
    109  C         13.3340   -6.1370   12.7860 C.2   109  GLY109      0.2612
    110  O         12.4420   -6.4360   13.5790 O.2   109  GLY109     -0.2717
    111  N         14.3400   -6.9560   12.4880 N.am  110  LYS110     -0.1965
    112  CA        14.4900   -8.2630   13.1260 C.3   110  LYS110      0.1728
    113  C         15.3260   -8.0910   14.3890 C.2   110  LYS110      0.2616
    114  O         15.7940   -6.9920   14.6890 O.2   110  LYS110     -0.2715
    115  CB        15.2020   -9.2540   12.1920 C.3   110  LYS110      0.0311
    116  CG        14.3030   -9.9900   11.1990 C.3   110  LYS110      0.0038
    117  CD        13.7590   -9.0730   10.1270 C.3   110  LYS110      0.0206
    118  CE        12.8800   -9.8360    9.1400 C.3   110  LYS110      0.1093
    119  NZ        11.6550  -10.4020    9.7840 N.3   110  LYS110     -0.1314
    120  N         15.5260   -9.1820   15.1220 N.am  111  GLU111     -0.1977
    121  CA        16.3100   -9.1400   16.3500 C.3   111  GLU111      0.1602
    122  C         17.6730   -8.4910   16.1100 C.2   111  GLU111      0.2287
    123  O         18.3550   -8.7990   15.1340 O.2   111  GLU111     -0.2864
    124  CB        16.5130  -10.5560   16.8960 C.3   111  GLU111      0.0415
    125  CG        17.2220  -10.6020   18.2420 C.3   111  GLU111      0.1163
    126  CD        17.5110  -12.0180   18.7010 C.2   111  GLU111      0.3649
    127  OE1       18.2740  -12.7230   18.0030 O.co2 111  GLU111     -0.2457
    128  OE2       16.9740  -12.4240   19.7550 O.co2 111  GLU111     -0.2457
    129  N         16.3530   -3.4550   15.6880 N.3   114  HIS114     -0.1241
    130  CA        15.0990   -2.7570   15.9440 C.3   114  HIS114      0.1621
    131  C         15.2420   -1.2460   15.8240 C.2   114  HIS114      0.2264
    132  O         16.1980   -0.6560   16.3280 O.2   114  HIS114     -0.2867
    133  CB        14.5790   -3.0940   17.3450 C.3   114  HIS114      0.0745
    134  CG        14.4720   -4.5650   17.6120 C.ar  114  HIS114      0.0817
    135  ND1       13.6020   -5.3810   16.9310 N.ar  114  HIS114     -0.2268
    136  CD2       15.1510   -5.3630   18.4710 C.ar  114  HIS114      0.1154
    137  CE1       13.7450   -6.6280   17.3560 C.ar  114  HIS114      0.1986
    138  NE2       14.6770   -6.6410   18.2880 N.ar  114  HIS114     -0.2212
    139  N         -3.3990    4.5180   13.6780 N.3   129  ILE129     -0.1231
    140  CA        -3.0790    3.4310   14.5940 C.3   129  ILE129      0.1692
    141  C         -4.1410    2.3390   14.4650 C.2   129  ILE129      0.2591
    142  O         -3.8190    1.1520   14.4410 O.2   129  ILE129     -0.2718
    143  CB        -3.0200    3.9380   16.0560 C.3   129  ILE129      0.0266
    144  CG1       -1.9170    4.9920   16.1960 C.3   129  ILE129      0.0019
    145  CG2       -2.7300    2.7810   17.0050 C.3   129  ILE129      0.0020
    146  CD1       -1.9340    5.7100   17.5290 C.3   129  ILE129      0.0001
    147  N         -5.4050    2.7430   14.3580 N.am  130  LEU130     -0.1980
    148  CA        -6.4900    1.7770   14.2230 C.3   130  LEU130      0.1596
    149  C         -6.4390    1.0310   12.8910 C.2   130  LEU130      0.2287
    150  O         -6.8290   -0.1370   12.8200 O.2   130  LEU130     -0.2864
    151  CB        -7.8510    2.4610   14.4010 C.3   130  LEU130      0.0297
    152  CG        -8.1270    2.9280   15.8340 C.3   130  LEU130      0.0022
    153  CD1       -9.5320    3.5120   15.9320 C.3   130  LEU130      0.0001
    154  CD2       -7.9770    1.7600   16.7930 C.3   130  LEU130      0.0001
    155  N         -3.9130   -1.6250   13.4430 N.3   133  ARG133     -0.1245
    156  CA        -4.4850   -2.6920   14.2580 C.3   133  ARG133      0.1563
    157  C         -5.3590   -3.6060   13.4010 C.2   133  ARG133      0.2260
    158  O         -5.2280   -4.8320   13.4540 O.2   133  ARG133     -0.2867
    159  CB        -5.3460   -2.1150   15.3830 C.3   133  ARG133      0.0307
    160  CG        -5.9800   -3.1890   16.2560 C.3   133  ARG133      0.0489
    161  CD        -7.1600   -2.6480   17.0360 C.3   133  ARG133      0.2205
    162  NE        -8.2230   -2.1800   16.1490 N.pl3 133  ARG133     -0.0865
    163  CZ        -9.3850   -1.6920   16.5720 C.cat 133  ARG133      0.5346
    164  NH1       -9.6340   -1.6100   17.8710 N.pl3 133  ARG133      0.1354
    165  NH2      -10.2970   -1.2790   15.6990 N.pl3 133  ARG133      0.1354
    166  N         -3.2100   -5.7020   10.7320 N.3   136  PHE136     -0.1227
    167  CA        -2.5230   -6.8320   11.3510 C.3   136  PHE136      0.1736
    168  C         -3.4780   -7.9650   11.7260 C.2   136  PHE136      0.2595
    169  O         -3.1990   -9.1320   11.4490 O.2   136  PHE136     -0.2718
    170  CB        -1.7590   -6.3540   12.5920 C.3   136  PHE136      0.0547
    171  CG        -0.6420   -5.3770   12.2910 C.ar  136  PHE136     -0.0202
    172  CD1       -0.0670   -4.6250   13.3170 C.ar  136  PHE136     -0.0042
    173  CD2       -0.1490   -5.2290   10.9980 C.ar  136  PHE136     -0.0042
    174  CE1        0.9750   -3.7350   13.0560 C.ar  136  PHE136     -0.0003
    175  CE2        0.9000   -4.3370   10.7260 C.ar  136  PHE136     -0.0003
    176  CZ         1.4630   -3.5950   11.7590 C.ar  136  PHE136     -0.0000
    177  N         -4.5930   -7.6240   12.3660 N.am  137  GLN137     -0.1979
    178  CA        -5.5710   -8.6280   12.7760 C.3   137  GLN137      0.1601
    179  C         -6.1690   -9.3250   11.5550 C.2   137  GLN137      0.2287
    180  O         -6.4060  -10.5320   11.5730 O.2   137  GLN137     -0.2864
    181  CB        -6.6810   -7.9720   13.6020 C.3   137  GLN137      0.0394
    182  CG        -7.6980   -8.9410   14.1970 C.3   137  GLN137      0.0908
    183  CD        -7.0520   -9.9710   15.1100 C.2   137  GLN137      0.2608
    184  OE1       -6.2490   -9.6250   15.9740 O.2   137  GLN137     -0.2717
    185  NE2       -7.4040  -11.2420   14.9240 N.am  137  GLN137     -0.0878
    186  N         -4.7220   -9.7440    8.5760 N.3   139  ILE139     -0.1231
    187  CA        -3.7210  -10.6270    7.9880 C.3   139  ILE139      0.1692
    188  C         -3.5960  -11.9010    8.8270 C.2   139  ILE139      0.2592
    189  O         -3.5220  -13.0030    8.2790 O.2   139  ILE139     -0.2718
    190  CB        -2.3630   -9.9070    7.8630 C.3   139  ILE139      0.0266
    191  CG1       -2.4830   -8.8000    6.8070 C.3   139  ILE139      0.0019
    192  CG2       -1.2600  -10.8930    7.4820 C.3   139  ILE139      0.0020
    193  CD1       -1.2060   -8.0450    6.5280 C.3   139  ILE139      0.0001
    194  N         -3.6020  -11.7470   10.1470 N.am  140  TYR140     -0.1976
    195  CA        -3.5190  -12.8930   11.0480 C.3   140  TYR140      0.1639
    196  C         -4.6940  -13.8310   10.7880 C.2   140  TYR140      0.2290
    197  O         -4.5210  -15.0410   10.6590 O.2   140  TYR140     -0.2864
    198  CB        -3.5590  -12.4390   12.5150 C.3   140  TYR140      0.0560
    199  CG        -3.7930  -13.5800   13.4900 C.ar  140  TYR140     -0.0198
    200  CD1       -2.7960  -14.5190   13.7500 C.ar  140  TYR140     -0.0009
    201  CD2       -5.0340  -13.7520   14.1040 C.ar  140  TYR140     -0.0009
    202  CE1       -3.0300  -15.6090   14.5960 C.ar  140  TYR140      0.0417
    203  CE2       -5.2800  -14.8340   14.9480 C.ar  140  TYR140      0.0417
    204  CZ        -4.2770  -15.7600   15.1890 C.ar  140  TYR140      0.1957
    205  OH        -4.5310  -16.8410   16.0100 O.3   140  TYR140     -0.2866
    206  N         -4.4670  -15.5000    7.2870 N.3   143  LYS143     -0.1245
    207  CA        -3.4070  -16.5000    7.2610 C.3   143  LYS143      0.1561
    208  C         -3.8660  -17.7470    8.0000 C.2   143  LYS143      0.2260
    209  O         -3.6000  -18.8700    7.5640 O.2   143  LYS143     -0.2867
    210  CB        -2.1270  -15.9620    7.9070 C.3   143  LYS143      0.0271
    211  CG        -1.2730  -15.0790    7.0010 C.3   143  LYS143      0.0035
    212  CD        -0.0660  -14.5430    7.7710 C.3   143  LYS143      0.0206
    213  CE         0.8950  -13.7730    6.8820 C.3   143  LYS143      0.1093
    214  NZ         1.6060  -14.6710    5.9230 N.3   143  LYS143     -0.1314
@<TRIPOS>BOND
     1    40    38   ar
     2    40    41   ar
     3   214   213    1
     4    38    37   ar
     5    41    39   ar
     6    49    48   ar
     7   193   191    1
     8    50    48   ar
     9    31    29    1
    10    25    26    1
    11   191   190    1
    12   213   212    1
    13    48    47    1
    14   211   212    1
    15   211   210    1
    16   207   206    1
    17   207   210    1
    18   207   208    1
    19    37    39   ar
    20    37    36    1
    21    29    26    1
    22    29    30    1
    23   192   190    1
    24   209   208    2
    25    47    46    1
    26    26    27    1
    27   190   187    1
    28   187   186    1
    29   187   188    1
    30    32    27   am
    31    32    33    1
    32    36    33    1
    33   189   188    2
    34    27    28    2
    35   188   194   am
    36    46    43    1
    37    33    34    1
    38   118   119    1
    39   118   117    1
    40    42    34   am
    41    42    43    1
    42    34    35    2
    43    43    44    1
    44   117   116    1
    45   194   195    1
    46    56    58    1
    47    56    55    1
    48   197   196    2
    49   175   173   ar
    50   175   176   ar
    51   166   167    1
    52   196   195    1
    53   173   171   ar
    54   195   198    1
    55    44    51   am
    56    44    45    2
    57   116   115    1
    58    51    52    1
    59   167   168    1
    60   167   170    1
    61   169   168    2
    62   179   180    2
    63   179   178    1
    64    55    52    1
    65    55    57    1
    66   168   177   am
    67   176   174   ar
    68   108   107    1
    69   108   109    1
    70   115   112    1
    71    52    53    1
    72   171   170    1
    73   171   172   ar
    74   177   178    1
    75   111   109   am
    76   111   112    1
    77   198   199    1
    78   178   181    1
    79   109   110    2
    80   150   149    2
    81   149   148    1
    82   174   172   ar
    83   112   113    1
    84    54    53    2
    85   157   158    2
    86   157   156    1
    87    53    59   am
    88   155   156    1
    89   199   200   ar
    90   199   201   ar
    91   181   182    1
    92   139   140    1
    93   200   202   ar
    94   201   203   ar
    95   182   183    1
    96   148   147    1
    97   148   151    1
    98   156   159    1
    99   147   141   am
   100   113   114    2
   101   113   120   am
   102   151   152    1
   103    84    82    1
   104   142   141    2
   105   141   140    1
   106    59    60    1
   107   140   143    1
   108   202   204   ar
   109   185   183   am
   110   203   204   ar
   111   183   184    2
   112   120   121    1
   113   123   122    2
   114   204   205    1
   115    82    81    1
   116   159   160    1
   117   129   130    1
   118   165   163    1
   119    60    63    1
   120    60    61    1
   121   131   130    1
   122   131   132    2
   123   152   153    1
   124   152   154    1
   125   130   133    1
   126   143   144    1
   127   143   145    1
   128   122   121    1
   129   162   163    2
   130   162   161    1
   131   144   146    1
   132   160   161    1
   133    83    81    1
   134   121   124    1
   135    63    64    1
   136   163   164    1
   137    81    78    1
   138    61    65   am
   139    61    62    2
   140    68    67    2
   141    65    66    1
   142   124   125    1
   143   135   137   ar
   144   135   134   ar
   145   133   134    1
   146   137   138   ar
   147    78    77    1
   148    78    79    1
   149    67    77   am
   150    67    66    1
   151   134   136   ar
   152    66    69    1
   153   127   126   ar
   154   125   126    1
   155   138   136   ar
   156    79    85   am
   157    79    80    2
   158   126   128   ar
   159    85    86    1
   160    88    87    2
   161    69    70    1
   162     5     2    1
   163     4     3    2
   164     2     3    1
   165     2     1    1
   166    87    86    1
   167    87    90   am
   168    16    14    1
   169    86    89    1
   170     3     6   am
   171    91    90    1
   172    91    94    1
   173    91    92    1
   174    70    72   ar
   175    70    71   ar
   176    95    94    1
   177    95    96    1
   178    97    96    1
   179    97    98    1
   180    72    74   ar
   181    14    13    2
   182    14    15    1
   183    71    73   ar
   184    92    93    2
   185     6     7    1
   186    13    12    1
   187     7    10    1
   188     7     8    1
   189    10    11    1
   190    74    75   ar
   191    73    75   ar
   192    75    76    1
   193    12    11    1
   194     8     9    2
   195    99   100    1
   196   100   101    1
   197   100   103    1
   198   101   102    2
   199    20    19    2
   200    17    18    1
   201    18    19    1
   202    18    21    1
   203    23    22   ar
   204   105   103    1
   205   103   104    1
   206   104   106    1
   207    21    22    1
   208    22    24   ar
