@<TRIPOS>MOLECULE
tmp/1nu3B00.pdb
 174 162 0 0 0
SMALL
GASTEIGER

@<TRIPOS>ATOM
      1  N          5.8750   -4.6570   18.5550 N.3    32  LEU32      -0.1245
      2  CA         5.7550   -4.2630   17.1220 C.3    32  LEU32       0.1561
      3  C          6.1940   -5.3610   16.1710 C.2    32  LEU32       0.2260
      4  O          5.6460   -5.4540   15.0910 O.2    32  LEU32      -0.2867
      5  CB         6.5610   -3.0150   16.8350 C.3    32  LEU32       0.0270
      6  CG         5.9470   -1.6870   17.2960 C.3    32  LEU32       0.0019
      7  CD1        6.8520   -0.5490   16.8670 C.3    32  LEU32       0.0001
      8  CD2        4.5740   -1.4630   16.8190 C.3    32  LEU32       0.0001
      9  N         -2.7780    8.2080   15.6200 N.3    49  TYR49      -0.1241
     10  CA        -1.4740    7.6820   15.2040 C.3    49  TYR49       0.1605
     11  C         -1.0890    8.3720   13.9080 C.2    49  TYR49       0.2264
     12  O         -1.9020    8.4590   12.9820 O.2    49  TYR49      -0.2867
     13  CB        -1.6260    6.1820   14.9100 C.3    49  TYR49       0.0534
     14  CG        -0.4550    5.4880   14.2510 C.ar   49  TYR49      -0.0201
     15  CD1        0.8430    5.6330   14.7530 C.ar   49  TYR49      -0.0009
     16  CD2       -0.6580    4.6300   13.1670 C.ar   49  TYR49      -0.0009
     17  CE1        1.9200    5.0090   14.1570 C.ar   49  TYR49       0.0417
     18  CE2        0.4390    3.9870   12.5420 C.ar   49  TYR49       0.0417
     19  CZ         1.7000    4.1400   13.0690 C.ar   49  TYR49       0.1957
     20  OH         2.7540    3.4720   12.4980 O.3    49  TYR49      -0.2866
     21  N          2.3840    8.5160   11.1780 N.3    51  ASN51      -0.1240
     22  CA         3.7230    8.5520   10.6260 C.3    51  ASN51       0.1653
     23  C          3.7900    9.8780    9.9380 C.2    51  ASN51       0.2266
     24  O          3.0380   10.1280    9.0240 O.2    51  ASN51      -0.2867
     25  CB         3.9410    7.4320    9.6530 C.3    51  ASN51       0.1155
     26  CG         4.0180    6.1330   10.3260 C.2    51  ASN51       0.2627
     27  OD1        4.9370    5.9000   11.1190 O.2    51  ASN51      -0.2716
     28  ND2        3.0240    5.2700   10.0830 N.am   51  ASN51      -0.0877
     29  N          3.0000   11.0740    6.4020 N.3    53  LEU53      -0.1245
     30  CA         1.7190   10.5910    5.8620 C.3    53  LEU53       0.1561
     31  C          0.5640   11.1230    6.7250 C.2    53  LEU53       0.2260
     32  O          0.7640   11.5320    7.8380 O.2    53  LEU53      -0.2867
     33  CB         1.6860    9.0660    5.8870 C.3    53  LEU53       0.0270
     34  CG         2.8420    8.3850    5.1150 C.3    53  LEU53       0.0019
     35  CD1        2.8840    6.9160    5.4260 C.3    53  LEU53       0.0001
     36  CD2        2.6880    8.6310    3.6660 C.3    53  LEU53       0.0001
     37  N         -2.5080    0.3950   10.6800 N.3    66  LEU66      -0.1245
     38  CA        -1.5170   -0.6280   11.0710 C.3    66  LEU66       0.1561
     39  C         -1.6830   -1.9090   10.2210 C.2    66  LEU66       0.2260
     40  O         -0.7190   -2.4720    9.7470 O.2    66  LEU66      -0.2867
     41  CB        -1.6160   -0.9580   12.5570 C.3    66  LEU66       0.0270
     42  CG        -1.1780    0.1330   13.5070 C.3    66  LEU66       0.0019
     43  CD1       -1.6140   -0.2100   14.9310 C.3    66  LEU66       0.0001
     44  CD2        0.3270    0.3690   13.4130 C.3    66  LEU66       0.0001
     45  N         -0.2500   -1.2490    6.8800 N.3    69  LEU69      -0.1231
     46  CA         1.2150   -1.2190    6.9140 C.3    69  LEU69       0.1693
     47  C          1.8010   -2.6470    6.9970 C.2    69  LEU69       0.2592
     48  O          2.7610   -2.9610    6.2570 O.2    69  LEU69      -0.2718
     49  CB         1.7360   -0.3150    8.0210 C.3    69  LEU69       0.0284
     50  CG         1.4470    1.1790    7.7630 C.3    69  LEU69       0.0019
     51  CD1        1.5660    1.9910    9.0510 C.3    69  LEU69       0.0001
     52  CD2        2.3800    1.7380    6.6920 C.3    69  LEU69       0.0001
     53  N          1.2040   -3.5120    7.8280 N.am   70  PHE70      -0.1976
     54  CA         1.7100   -4.8760    8.0090 C.3    70  PHE70       0.1639
     55  C          1.3640   -5.7870    6.8270 C.2    70  PHE70       0.2290
     56  O          1.8410   -6.9090    6.7620 O.2    70  PHE70      -0.2864
     57  CB         1.2220   -5.4960    9.3120 C.3    70  PHE70       0.0560
     58  CG         1.7930   -4.8510   10.5470 C.ar   70  PHE70      -0.0200
     59  CD1        3.1780   -4.6030   10.6350 C.ar   70  PHE70      -0.0042
     60  CD2        0.9550   -4.4460   11.5920 C.ar   70  PHE70      -0.0042
     61  CE1        3.7160   -4.0100   11.7610 C.ar   70  PHE70      -0.0003
     62  CE2        1.4900   -3.8200   12.7190 C.ar   70  PHE70      -0.0003
     63  CZ         2.8640   -3.6200   12.8020 C.ar   70  PHE70      -0.0000
     64  N          8.1050   -5.3730   10.4640 N.3    74  ILE74      -0.1245
     65  CA         9.0680   -4.7780   11.4120 C.3    74  ILE74       0.1561
     66  C          9.8570   -5.9670   11.9660 C.2    74  ILE74       0.2260
     67  O          9.3040   -6.7890   12.7160 O.2    74  ILE74      -0.2867
     68  CB         8.3900   -4.0180   12.5280 C.3    74  ILE74       0.0252
     69  CG1        7.5110   -2.8930   11.9550 C.3    74  ILE74       0.0019
     70  CG2        9.4660   -3.4240   13.5060 C.3    74  ILE74       0.0019
     71  CD1        6.5650   -2.2400   12.9760 C.3    74  ILE74       0.0001
     72  N         14.9860    5.8240   18.1310 N.3    93  ARG93      -0.1245
     73  CA        15.2440    4.4380   17.7610 C.3    93  ARG93       0.1563
     74  C         15.6150    4.1720   16.3300 C.2    93  ARG93       0.2260
     75  O         15.7130    5.1110   15.5210 O.2    93  ARG93      -0.2867
     76  CB        14.0400    3.6150   18.1260 C.3    93  ARG93       0.0307
     77  CG        12.8710    3.9050   17.5150 C.3    93  ARG93       0.0489
     78  CD        11.6080    3.4300   18.3820 C.3    93  ARG93       0.2205
     79  NE        10.6660    3.1510   17.3310 N.pl3  93  ARG93      -0.0865
     80  CZ         9.6380    3.9340   17.0060 C.cat  93  ARG93       0.5346
     81  NH1        9.2750    4.9600   17.7430 N.pl3  93  ARG93       0.1354
     82  NH2        8.9410    3.6170   15.9770 N.pl3  93  ARG93       0.1354
     83  N         14.0800    1.2360   13.5570 N.3    95  ASP95      -0.1239
     84  CA        13.2140    0.1020   13.2430 C.3    95  ASP95       0.1674
     85  C         13.7940   -0.5270   11.9870 C.2    95  ASP95       0.2266
     86  O         14.0340    0.1570   11.0240 O.2    95  ASP95      -0.2867
     87  CB        11.7450    0.5150   12.9790 C.3    95  ASP95       0.1410
     88  CG        11.0390    1.0580   14.1780 C.2    95  ASP95       0.3668
     89  OD1       11.6910    1.2650   15.2280 O.co2  95  ASP95      -0.2456
     90  OD2        9.8100    1.3660   14.1040 O.co2  95  ASP95      -0.2456
     91  N         13.0210   -2.4990    8.8830 N.3    97  LEU97      -0.1245
     92  CA        11.8250   -2.7120    8.0890 C.3    97  LEU97       0.1561
     93  C         12.1580   -3.5040    6.8380 C.2    97  LEU97       0.2260
     94  O         13.1290   -3.2380    6.1840 O.2    97  LEU97      -0.2867
     95  CB        11.2280   -1.3660    7.6780 C.3    97  LEU97       0.0270
     96  CG        10.9530   -0.4170    8.8370 C.3    97  LEU97       0.0019
     97  CD1       10.4970    0.9180    8.3110 C.3    97  LEU97       0.0001
     98  CD2        9.9410   -0.9720    9.8200 C.3    97  LEU97       0.0001
     99  N         15.6060    2.1560    9.5930 N.3   108  LEU108     -0.1245
    100  CA        15.0030    3.4520    9.5850 C.3   108  LEU108      0.1561
    101  C         15.2030    4.1340   10.9370 C.2   108  LEU108      0.2260
    102  O         14.7050    3.6450   11.9350 O.2   108  LEU108     -0.2867
    103  CB        13.5000    3.3040    9.2920 C.3   108  LEU108      0.0270
    104  CG        12.7980    4.6790    9.1750 C.3   108  LEU108      0.0019
    105  CD1       13.3220    5.6120    8.1060 C.3   108  LEU108      0.0001
    106  CD2       11.3270    4.4170    9.0370 C.3   108  LEU108      0.0001
    107  N         14.2660    6.7640   13.6230 N.3   110  ILE110     -0.1245
    108  CA        13.0040    7.3870   14.0160 C.3   110  ILE110      0.1561
    109  C         13.1070    8.0870   15.3660 C.2   110  ILE110      0.2260
    110  O         13.7320    7.5780   16.2950 O.2   110  ILE110     -0.2867
    111  CB        11.8970    6.3240   14.1110 C.3   110  ILE110      0.0252
    112  CG1       11.6870    5.6130   12.7510 C.3   110  ILE110      0.0019
    113  CG2       10.5820    6.9090   14.5720 C.3   110  ILE110      0.0019
    114  CD1       10.9260    4.3610   12.8890 C.3   110  ILE110      0.0001
    115  N          0.3030    8.8150   19.1410 N.3   124  TRP124     -0.1241
    116  CA         1.6350    8.2930   18.7950 C.3   124  TRP124      0.1605
    117  C          2.0220    8.9070   17.4650 C.2   124  TRP124      0.2264
    118  O          1.3190    8.7440   16.4830 O.2   124  TRP124     -0.2867
    119  CB         1.6220    6.7760   18.6980 C.3   124  TRP124      0.0550
    120  CG         2.8390    6.1120   18.1190 C.ar  124  TRP124      0.0003
    121  CD1        4.1320    6.5780   18.1280 C.ar  124  TRP124      0.0946
    122  CD2        2.8750    4.8260   17.4970 C.ar  124  TRP124      0.0152
    123  NE1        4.9500    5.6690   17.4980 N.ar  124  TRP124     -0.2442
    124  CE2        4.1990    4.5780   17.1130 C.ar  124  TRP124      0.0810
    125  CE3        1.9100    3.8620   17.2080 C.ar  124  TRP124      0.0012
    126  CZ2        4.5850    3.3930   16.4350 C.ar  124  TRP124      0.0191
    127  CZ3        2.2850    2.6960   16.5330 C.ar  124  TRP124      0.0001
    128  CH2        3.6270    2.4650   16.1770 C.ar  124  TRP124      0.0015
    129  N          5.4490    9.3260   14.8930 N.3   126  ASP126     -0.1239
    130  CA         6.8050    8.9760   14.5720 C.3   126  ASP126      0.1674
    131  C          7.2880    9.8940   13.4380 C.2   126  ASP126      0.2266
    132  O          6.6280   10.0370   12.4070 O.2   126  ASP126     -0.2867
    133  CB         6.9260    7.5180   14.0810 C.3   126  ASP126      0.1410
    134  CG         7.0710    6.5060   15.1970 C.2   126  ASP126      0.3668
    135  OD1        7.4460    6.8430   16.3350 O.co2 126  ASP126     -0.2456
    136  OD2        6.9140    5.3140   14.9710 O.co2 126  ASP126     -0.2456
    137  N         10.4320   10.7880   10.7910 N.3   128  PHE128     -0.1241
    138  CA        11.4760   10.1280   10.0050 C.3   128  PHE128      0.1605
    139  C         11.3600   10.5830    8.5790 C.2   128  PHE128      0.2264
    140  O         10.4150   11.2470    8.1880 O.2   128  PHE128     -0.2867
    141  CB        11.3780    8.5860   10.0530 C.3   128  PHE128      0.0534
    142  CG        10.0620    8.0450    9.5540 C.ar  128  PHE128     -0.0203
    143  CD1        9.8730    7.7310    8.2200 C.ar  128  PHE128     -0.0042
    144  CD2        9.0010    7.8370   10.4430 C.ar  128  PHE128     -0.0042
    145  CE1        8.6580    7.2310    7.7680 C.ar  128  PHE128     -0.0003
    146  CE2        7.8370    7.3520    9.9950 C.ar  128  PHE128     -0.0003
    147  CZ         7.6470    7.0550    8.6630 C.ar  128  PHE128     -0.0000
    148  N         10.8120    9.5170    4.7910 N.3   130  LEU130     -0.1245
    149  CA        10.1470    8.4150    4.0980 C.3   130  LEU130      0.1561
    150  C         10.8670    8.0380    2.8020 C.2   130  LEU130      0.2260
    151  O         10.9610    6.8670    2.4800 O.2   130  LEU130     -0.2867
    152  CB         8.6710    8.7310    3.8790 C.3   130  LEU130      0.0270
    153  CG         7.8340    7.6900    3.1350 C.3   130  LEU130      0.0019
    154  CD1        7.8650    6.3370    3.8270 C.3   130  LEU130      0.0001
    155  CD2        6.3650    8.1270    3.0030 C.3   130  LEU130      0.0001
    156  N         13.7250    5.4120    2.8690 N.3   133  PHE133     -0.1241
    157  CA        13.1900    4.0680    3.0740 C.3   133  PHE133      0.1605
    158  C         12.6240    3.5550    1.7440 C.2   133  PHE133      0.2264
    159  O         12.9090    2.4570    1.3450 O.2   133  PHE133     -0.2867
    160  CB        12.1410    4.1170    4.1710 C.3   133  PHE133      0.0534
    161  CG        11.3020    2.8610    4.3160 C.ar  133  PHE133     -0.0203
    162  CD1       11.8630    1.6210    4.3770 C.ar  133  PHE133     -0.0042
    163  CD2        9.9420    2.9530    4.4420 C.ar  133  PHE133     -0.0042
    164  CE1       11.1180    0.5060    4.5000 C.ar  133  PHE133     -0.0003
    165  CE2        9.1720    1.7990    4.5870 C.ar  133  PHE133     -0.0003
    166  CZ         9.7900    0.5720    4.6160 C.ar  133  PHE133     -0.0000
    167  N          5.8210    3.9080   -0.9500 N.3   141  LEU141     -0.1245
    168  CA         4.7150    3.8760    0.0030 C.3   141  LEU141      0.1561
    169  C          3.8070    5.0830   -0.1770 C.2   141  LEU141      0.2260
    170  O          2.5440    4.9640   -0.2170 O.2   141  LEU141     -0.2867
    171  CB         5.2960    3.8450    1.4160 C.3   141  LEU141      0.0270
    172  CG         4.2960    3.5930    2.5310 C.3   141  LEU141      0.0019
    173  CD1        3.6460    2.2390    2.3330 C.3   141  LEU141      0.0001
    174  CD2        4.9820    3.6970    3.9390 C.3   141  LEU141      0.0001
@<TRIPOS>BOND
     1   167   168    1
     2   170   169    2
     3   169   168    1
     4   168   171    1
     5   159   158    2
     6   171   172    1
     7   158   157    1
     8   173   172    1
     9   151   150    2
    10   172   174    1
    11   150   149    1
    12   156   157    1
    13   155   153    1
    14   157   160    1
    15   153   154    1
    16   153   152    1
    17    36    34    1
    18   152   149    1
    19   149   148    1
    20   160   161    1
    21   161   162   ar
    22   161   163   ar
    23   162   164   ar
    24   163   165   ar
    25   164   166   ar
    26   165   166   ar
    27    34    35    1
    28    34    33    1
    29    30    33    1
    30    30    29    1
    31    30    31    1
    32    94    93    2
    33    48    47    2
    34    52    50    1
    35    31    32    2
    36    56    55    2
    37    55    54    1
    38    93    92    1
    39    45    46    1
    40    46    47    1
    41    46    49    1
    42    47    53   am
    43    95    92    1
    44    95    96    1
    45    50    49    1
    46    50    51    1
    47   145   143   ar
    48   145   147   ar
    49    53    54    1
    50    54    57    1
    51    92    91    1
    52   105   104    1
    53   140   139    2
    54   143   142   ar
    55    97    96    1
    56   139   138    1
    57   147   146   ar
    58    96    98    1
    59    24    23    2
    60   106   104    1
    61   104   103    1
    62   103   100    1
    63    57    58    1
    64   142   141    1
    65   142   144   ar
    66   100    99    1
    67   100   101    1
    68    25    26    1
    69    25    22    1
    70    40    39    2
    71    23    22    1
    72   146   144   ar
    73   138   141    1
    74   138   137    1
    75    28    26   am
    76    39    38    1
    77    26    27    2
    78    64    65    1
    79    58    59   ar
    80    58    60   ar
    81    22    21    1
    82    59    61   ar
    83    37    38    1
    84   101   102    2
    85    86    85    2
    86    38    41    1
    87    65    66    1
    88    65    68    1
    89    60    62   ar
    90    61    63   ar
    91    69    68    1
    92    69    71    1
    93    66    67    2
    94    85    84    1
    95   132   131    2
    96    20    19    1
    97    68    70    1
    98    18    19   ar
    99    18    16   ar
   100    41    42    1
   101    62    63   ar
   102   112   114    1
   103   112   111    1
   104    87    84    1
   105    87    88    1
   106    12    11    2
   107    19    17   ar
   108    16    14   ar
   109    84    83    1
   110    44    42    1
   111   131   130    1
   112    42    43    1
   113   107   108    1
   114    11    10    1
   115   108   111    1
   116   108   109    1
   117   133   130    1
   118   133   134    1
   119    90    88   ar
   120   111   113    1
   121    17    15   ar
   122    88    89   ar
   123    14    15   ar
   124    14    13    1
   125   130   129    1
   126    13    10    1
   127   136   134   ar
   128     4     3    2
   129   134   135   ar
   130    10     9    1
   131   109   110    2
   132    75    74    2
   133    82    80    1
   134     3     2    1
   135   128   126   ar
   136   128   127   ar
   137    74    73    1
   138   126   124   ar
   139   118   117    2
   140   127   125   ar
   141     8     6    1
   142     5     2    1
   143     5     6    1
   144     7     6    1
   145    80    79    2
   146    80    81    1
   147   124   122   ar
   148   124   123   ar
   149     2     1    1
   150   125   122   ar
   151    79    78    1
   152   117   116    1
   153   122   120   ar
   154   123   121   ar
   155    77    76    1
   156    77    78    1
   157    73    76    1
   158    73    72    1
   159   120   121   ar
   160   120   119    1
   161   119   116    1
   162   116   115    1
