@<TRIPOS>MOLECULE
tmp/1nu4B02.pdb
 87 85 0 0 0
SMALL
GASTEIGER

@<TRIPOS>ATOM
      1  N         17.5540   -1.3770   20.6900 N.3     2  ARG2       -0.1231
      2  CA        17.8550   -1.0890   22.0870 C.3     2  ARG2        0.1679
      3  C         17.1540    0.1840   22.5530 C.2     2  ARG2        0.2434
      4  O         17.3240    1.2480   21.9560 O.2     2  ARG2       -0.2733
      5  CB        19.3680   -0.9400   22.2750 C.3     2  ARG2        0.0321
      6  CG        19.7850   -0.7200   23.7370 C.3     2  ARG2        0.0489
      7  CD        21.3160   -0.5870   23.9100 C.3     2  ARG2        0.2205
      8  NE        21.8290    0.6440   23.2770 N.pl3   2  ARG2       -0.0865
      9  CZ        22.0760    1.7910   23.9420 C.cat   2  ARG2        0.5346
     10  NH1       21.8940    1.9060   25.2520 N.pl3   2  ARG2        0.1354
     11  NH2       22.4890    2.8560   23.2510 N.pl3   2  ARG2        0.1354
     12  N         16.3550    0.0880   23.6310 N.am    3  PRO3       -0.2718
     13  CA        15.6210    1.2280   24.1910 C.3     3  PRO3        0.1535
     14  C         16.4850    2.4860   24.2250 C.2     3  PRO3        0.2599
     15  O         17.6580    2.4350   24.5920 O.2     3  PRO3       -0.2715
     16  CB        15.2250    0.7230   25.5700 C.3     3  PRO3        0.0310
     17  CG        14.9290   -0.7250   25.2830 C.3     3  PRO3        0.0237
     18  CD        16.1090   -1.1290   24.4260 C.3     3  PRO3        0.0939
     19  N         15.8890    3.6140   23.8520 N.am    4  ASN4       -0.1959
     20  CA        16.6010    4.8860   23.7640 C.3     4  ASN4        0.1819
     21  C         15.7000    6.0360   24.2320 C.2     4  ASN4        0.2621
     22  O         14.4910    5.8570   24.3550 O.2     4  ASN4       -0.2715
     23  CB        16.9960    5.0850   22.2910 C.3     4  ASN4        0.1195
     24  CG        17.9190    6.2580   22.0720 C.2     4  ASN4        0.2630
     25  OD1       17.5700    7.4050   22.3430 O.2     4  ASN4       -0.2716
     26  ND2       19.1090    5.9760   21.5630 N.am    4  ASN4       -0.0877
     27  N         16.2890    7.2030   24.5030 N.am    5  HIS5       -0.1959
     28  CA        15.5190    8.3870   24.9140 C.3     5  HIS5        0.1787
     29  C         14.8350    8.9650   23.6830 C.2     5  HIS5        0.2620
     30  O         13.8750    9.7300   23.7870 O.2     5  HIS5       -0.2715
     31  CB        16.4210    9.5210   25.4350 C.3     5  HIS5        0.0785
     32  CG        17.0010    9.2900   26.7920 C.ar    5  HIS5        0.0821
     33  ND1       18.0480    8.4250   27.0190 N.ar    5  HIS5       -0.2267
     34  CD2       16.6990    9.8370   27.9930 C.ar    5  HIS5        0.1154
     35  CE1       18.3660    8.4470   28.3010 C.ar    5  HIS5        0.1986
     36  NE2       17.5610    9.2960   28.9150 N.ar    5  HIS5       -0.2212
     37  N         15.3610    8.6050   22.5210 N.am    6  THR6       -0.1951
     38  CA        14.8830    9.1390   21.2560 C.3     6  THR6        0.1897
     39  C         14.1480    8.1590   20.3550 C.2     6  THR6        0.2313
     40  O         14.5720    7.0170   20.1730 O.2     6  THR6       -0.2863
     41  CB        16.0720    9.7100   20.4430 C.3     6  THR6        0.1794
     42  OG1       16.8720   10.5510   21.2840 O.3     6  THR6       -0.2208
     43  CG2       15.5730   10.5180   19.2510 C.3     6  THR6        0.0378
     44  N         13.0530   13.6140   21.2030 N.3    53  ILE53      -0.1245
     45  CA        13.9030   13.2320   22.3200 C.3    53  ILE53       0.1561
     46  C         13.2010   13.4920   23.6390 C.2    53  ILE53       0.2260
     47  O         12.8140   14.6240   23.9370 O.2    53  ILE53      -0.2867
     48  CB        15.2400   14.0170   22.2980 C.3    53  ILE53       0.0252
     49  CG1       15.9280   13.8150   20.9450 C.3    53  ILE53       0.0019
     50  CG2       16.1410   13.5420   23.4360 C.3    53  ILE53       0.0019
     51  CD1       17.2410   14.5560   20.7980 C.3    53  ILE53       0.0001
     52  N         13.5850    7.3330   29.1820 N.3    57  VAL57      -0.1245
     53  CA        13.4270    6.2310   28.2320 C.3    57  VAL57       0.1561
     54  C         12.0200    5.6240   28.2750 C.2    57  VAL57       0.2260
     55  O         11.4800    5.1970   27.2470 O.2    57  VAL57      -0.2867
     56  CB        14.4670    5.1130   28.5030 C.3    57  VAL57       0.0252
     57  CG1       14.2720    3.9620   27.5270 C.3    57  VAL57       0.0019
     58  CG2       15.8720    5.6740   28.3750 C.3    57  VAL57       0.0019
     59  N         20.8870    6.1600   17.4600 N.3    84  THR84      -0.1203
     60  CA        21.8220    6.9880   18.2150 C.3    84  THR84       0.1994
     61  C         22.2710    6.4090   19.5550 C.2    84  THR84       0.2618
     62  O         21.6320    5.5170   20.1150 O.2    84  THR84      -0.2717
     63  CB        21.2230    8.3790   18.4810 C.3    84  THR84       0.1784
     64  OG1       22.1090    9.1310   19.3200 O.3    84  THR84      -0.2211
     65  CG2       19.8700    8.2510   19.1660 C.3    84  THR84       0.0376
     66  N         23.3810    6.9400   20.0590 N.am   85  ASP85      -0.1959
     67  CA        23.9530    6.5220   21.3340 C.3    85  ASP85       0.1840
     68  C         24.7580    7.6880   21.9070 C.2    85  ASP85       0.2623
     69  O         25.9840    7.7120   21.8090 O.2    85  ASP85      -0.2715
     70  CB        24.8650    5.3100   21.1320 C.3    85  ASP85       0.1450
     71  CG        25.5650    4.7950   22.3550 C.2    85  ASP85       0.3671
     72  OD1       25.1690    5.0570   23.5240 O.co2  85  ASP85      -0.2456
     73  OD2       26.5210    4.0190   22.2020 O.co2  85  ASP85      -0.2456
     74  N         24.0590    8.6500   22.5030 N.am   86  SER86      -0.1936
     75  CA        24.6960    9.8330   23.0750 C.3    86  SER86       0.2055
     76  C         24.0620   10.2770   24.3910 C.2    86  SER86       0.2643
     77  O         24.6470   10.1120   25.4620 O.2    86  SER86      -0.2714
     78  CB        24.6290   10.9860   22.0730 C.3    86  SER86       0.2130
     79  OG        25.1230   12.1850   22.6430 O.3    86  SER86      -0.2179
     80  N         22.8700   10.8610   24.2880 N.am   87  ASP87      -0.1971
     81  CA        22.1140   11.3430   25.4410 C.3    87  ASP87       0.1709
     82  C         22.6070   12.6850   25.9770 C.2    87  ASP87       0.2293
     83  O         22.2730   13.0710   27.0960 O.2    87  ASP87      -0.2864
     84  CB        22.1330   10.3040   26.5680 C.3    87  ASP87       0.1436
     85  CG        21.3820    9.0600   26.2760 C.2    87  ASP87       0.3671
     86  OD1       20.4920    9.0560   25.3730 O.co2  87  ASP87      -0.2456
     87  OD2       21.6060    8.0390   27.0080 O.co2  87  ASP87      -0.2456
@<TRIPOS>BOND
     1    59    60    1
     2    60    63    1
     3    60    61    1
     4    63    65    1
     5    63    64    1
     6    43    41    1
     7    61    66   am
     8    61    62    2
     9    66    67    1
    10    40    39    2
    11    39    38    1
    12    41    38    1
    13    41    42    1
    14     1     2    1
    15    51    49    1
    16    49    48    1
    17    70    67    1
    18    70    71    1
    19    44    45    1
    20    38    37    1
    21    67    68    1
    22    26    24   am
    23    69    68    2
    24    68    74   am
    25     4     3    2
    26    24    23    1
    27    24    25    2
    28    78    79    1
    29    78    75    1
    30     2     5    1
    31     2     3    1
    32    73    71   ar
    33     5     6    1
    34    23    20    1
    35    48    45    1
    36    48    50    1
    37    45    46    1
    38    71    72   ar
    39    74    75    1
    40    37    29   am
    41     3    12   am
    42    75    76    1
    43    11     9    1
    44     8     7    1
    45     8     9    2
    46    12    13    1
    47    12    18    1
    48    46    47    2
    49    29    30    2
    50    29    28    1
    51     6     7    1
    52    20    19    1
    53    20    21    1
    54    19    14   am
    55     9    10    1
    56    13    14    1
    57    13    16    1
    58    14    15    2
    59    21    22    2
    60    21    27   am
    61    80    76   am
    62    80    81    1
    63    76    77    2
    64    18    17    1
    65    27    28    1
    66    28    31    1
    67    17    16    1
    68    86    85   ar
    69    31    32    1
    70    81    82    1
    71    81    84    1
    72    82    83    2
    73    85    84    1
    74    85    87   ar
    75    32    33   ar
    76    32    34   ar
    77    33    35   ar
    78    55    54    2
    79    57    56    1
    80    34    36   ar
    81    53    54    1
    82    53    56    1
    83    53    52    1
    84    35    36   ar
    85    58    56    1
