@<TRIPOS>MOLECULE
tmp/1nu7E00.pdb
 244 246 0 0 0
SMALL
GASTEIGER

@<TRIPOS>ATOM
      1  N         46.7040    9.5060    6.2650 N.3    28  CYS28      -0.1235
      2  CA        46.8430    8.2950    7.0580 C.3    28  CYS28       0.1677
      3  C         47.9880    7.4880    6.5170 C.2    28  CYS28       0.2270
      4  O         48.6200    7.8600    5.5270 O.2    28  CYS28      -0.2867
      5  CB        45.5710    7.4400    6.8930 C.3    28  CYS28       0.0956
      6  SG        44.2280    7.8590    8.0290 S.3    28  CYS28      -0.0801
      7  N         38.0940    4.1700    8.7120 N.3    43  HIS43      -0.1226
      8  CA        37.7680    5.5110    9.1420 C.3    43  HIS43       0.1752
      9  C         38.5890    6.5880    8.4580 C.2    43  HIS43       0.2596
     10  O         38.2430    7.7500    8.5300 O.2    43  HIS43      -0.2718
     11  CB        37.8660    5.6390   10.6770 C.3    43  HIS43       0.0759
     12  CG        39.2440    5.9410   11.1870 C.ar   43  HIS43       0.0818
     13  ND1       40.0870    4.9720   11.6950 N.ar   43  HIS43      -0.2268
     14  CD2       39.9340    7.1080   11.2530 C.ar   43  HIS43       0.1154
     15  CE1       41.2320    5.5290   12.0520 C.ar   43  HIS43       0.1986
     16  NE2       41.1630    6.8260   11.7930 N.ar   43  HIS43      -0.2212
     17  N         39.6800    6.2120    7.8030 N.am   44  CYS44      -0.1970
     18  CA        40.5040    7.1810    7.0920 C.3    44  CYS44       0.1712
     19  C         39.8220    7.6050    5.7930 C.2    44  CYS44       0.2296
     20  O         40.1450    8.6700    5.2300 O.2    44  CYS44      -0.2864
     21  CB        41.8400    6.5760    6.7040 C.3    44  CYS44       0.0983
     22  SG        42.9810    6.2300    8.0810 S.3    44  CYS44      -0.0798
     23  N         34.1460    8.3940    7.5240 N.3    47  TYR47      -0.1241
     24  CA        33.8250    8.6870    8.9110 C.3    47  TYR47       0.1605
     25  C         32.8800    9.8680    8.9300 C.2    47  TYR47       0.2264
     26  O         33.2990   11.0060    9.0740 O.2    47  TYR47      -0.2867
     27  CB        35.0860    8.9910    9.7510 C.3    47  TYR47       0.0534
     28  CG        34.7610    8.9300   11.2230 C.ar   47  TYR47      -0.0201
     29  CD1       34.1870    7.7790   11.7690 C.ar   47  TYR47      -0.0009
     30  CD2       34.9470   10.0460   12.0640 C.ar   47  TYR47      -0.0009
     31  CE1       33.7910    7.7250   13.0980 C.ar   47  TYR47       0.0417
     32  CE2       34.5590   10.0050   13.4080 C.ar   47  TYR47       0.0417
     33  CZ        33.9770    8.8360   13.9120 C.ar   47  TYR47       0.1957
     34  OH        33.5360    8.7800   15.2070 O.3    47  TYR47      -0.2866
     35  N         32.9160   13.2310   11.0690 N.3    50  TRP50      -0.1241
     36  CA        33.8660   14.2880   10.7650 C.3    50  TRP50       0.1605
     37  C         33.7040   14.6830    9.2960 C.2    50  TRP50       0.2264
     38  O         34.6560   15.1730    8.6710 O.2    50  TRP50      -0.2867
     39  CB        35.3070   13.8260   11.0080 C.3    50  TRP50       0.0550
     40  CG        35.6310   13.5540   12.4550 C.ar   50  TRP50       0.0003
     41  CD1       34.8900   13.9080   13.5440 C.ar   50  TRP50       0.0946
     42  CD2       36.7970   12.8840   12.9620 C.ar   50  TRP50       0.0152
     43  NE1       35.5240   13.5010   14.6930 N.ar   50  TRP50      -0.2442
     44  CE2       36.6960   12.8750   14.3620 C.ar   50  TRP50       0.0810
     45  CE3       37.9170   12.2930   12.3590 C.ar   50  TRP50       0.0012
     46  CZ2       37.6660   12.2890   15.1800 C.ar   50  TRP50       0.0191
     47  CZ3       38.8880   11.7040   13.1700 C.ar   50  TRP50       0.0001
     48  CH2       38.7560   11.7110   14.5700 C.ar   50  TRP50       0.0015
     49  N         31.2360    2.3530   12.1700 N.3    92  TRP92      -0.1227
     50  CA        31.6880    3.6940   12.5130 C.3    92  TRP92       0.1737
     51  C         30.8300    4.4140   13.5680 C.2    92  TRP92       0.2595
     52  O         31.3410    5.2250   14.3400 O.2    92  TRP92      -0.2718
     53  CB        31.8130    4.5630   11.2560 C.3    92  TRP92       0.0564
     54  CG        30.5680    4.7120   10.4690 C.ar   92  TRP92       0.0003
     55  CD1       30.1960    3.9920    9.3590 C.ar   92  TRP92       0.0946
     56  CD2       29.4960    5.6160   10.7380 C.ar   92  TRP92       0.0152
     57  NE1       28.9570    4.3960    8.9270 N.ar   92  TRP92      -0.2442
     58  CE2       28.5020    5.3900    9.7550 C.ar   92  TRP92       0.0810
     59  CE3       29.2790    6.6020   11.7130 C.ar   92  TRP92       0.0012
     60  CZ2       27.3060    6.1080    9.7210 C.ar   92  TRP92       0.0191
     61  CZ3       28.0830    7.3270   11.6810 C.ar   92  TRP92       0.0001
     62  CH2       27.1120    7.0720   10.6890 C.ar   92  TRP92       0.0015
     63  N         29.5410    4.1070   13.6290 N.am   93  ARG93      -0.1966
     64  CA        28.6800    4.7720   14.6000 C.3    93  ARG93       0.1729
     65  C         28.9860    4.3950   16.0410 C.2    93  ARG93       0.2616
     66  O         28.6080    5.1150   16.9640 O.2    93  ARG93      -0.2715
     67  CB        27.2040    4.4440   14.3470 C.3    93  ARG93       0.0348
     68  CG        26.8330    4.1960   12.8990 C.3    93  ARG93       0.0492
     69  CD        25.3720    3.7650   12.7860 C.3    93  ARG93       0.2205
     70  NE        24.5060    4.9340   12.8580 N.pl3  93  ARG93      -0.0865
     71  CZ        24.1890    5.6900   11.8090 C.cat  93  ARG93       0.5346
     72  NH1       24.6520    5.3860   10.5960 N.pl3  93  ARG93       0.1354
     73  NH2       23.4450    6.7770   11.9820 N.pl3  93  ARG93       0.1354
     74  N         29.6730    3.2780   16.2540 N.am   94  GLU94      -0.1963
     75  CA        29.9060    2.8530   17.6320 C.3    94  GLU94       0.1733
     76  C         31.2940    2.6430   18.2210 C.2    94  GLU94       0.2616
     77  O         31.6080    3.2200   19.2400 O.2    94  GLU94      -0.2715
     78  CB        29.0740    1.5970   17.8860 C.3    94  GLU94       0.0429
     79  CG        29.2630    0.9690   19.2410 C.3    94  GLU94       0.1163
     80  CD        28.2670   -0.1590   19.4900 C.2    94  GLU94       0.3649
     81  OE1       28.1540   -1.0870   18.6340 O.co2  94  GLU94      -0.2457
     82  OE2       27.5900   -0.1160   20.5510 O.co2  94  GLU94      -0.2457
     83  N         32.1280    1.8270   17.6000 N.am   95  ASN95      -0.1958
     84  CA        33.4250    1.5260   18.1890 C.3    95  ASN95       0.1819
     85  C         34.5090    1.1970   17.1770 C.2    95  ASN95       0.2621
     86  O         35.5400    0.6200   17.5180 O.2    95  ASN95      -0.2715
     87  CB        33.2500    0.3330   19.1120 C.3    95  ASN95       0.1195
     88  CG        32.5840   -0.8490   18.4100 C.2    95  ASN95       0.2630
     89  OD1       32.3700   -0.8340   17.1900 O.2    95  ASN95      -0.2716
     90  ND2       32.2590   -1.8750   19.1750 N.am   95  ASN95      -0.0877
     91  N         34.2840    1.5940   15.9370 N.am   96  LEU96      -0.1977
     92  CA        35.2080    1.3050   14.8600 C.3    96  LEU96       0.1596
     93  C         35.4710   -0.1960   14.7080 C.2    96  LEU96       0.2287
     94  O         36.5480   -0.6110   14.2940 O.2    96  LEU96      -0.2864
     95  CB        36.5230    2.0690   15.0340 C.3    96  LEU96       0.0297
     96  CG        36.4940    3.5930   14.9320 C.3    96  LEU96       0.0022
     97  CD1       37.9310    4.0570   14.7230 C.3    96  LEU96       0.0001
     98  CD2       35.5700    4.0830   13.7810 C.3    96  LEU96       0.0001
     99  N         34.6920    2.3710   25.6720 N.3   179  ILE179     -0.1245
    100  CA        34.2640    2.0270   24.3280 C.3   179  ILE179      0.1561
    101  C         34.1870    0.4950   24.3030 C.2   179  ILE179      0.2260
    102  O         35.0750   -0.1900   24.8400 O.2   179  ILE179     -0.2867
    103  CB        35.2810    2.5480   23.2960 C.3   179  ILE179      0.0252
    104  CG1       35.2360    4.0760   23.3080 C.3   179  ILE179      0.0019
    105  CG2       34.9660    2.0340   21.9040 C.3   179  ILE179      0.0019
    106  CD1       36.3100    4.7150   22.4740 C.3   179  ILE179      0.0001
    107  N         53.2670    5.1760   21.6560 N.3   199  ASP199     -0.1225
    108  CA        51.9160    4.9710   21.1430 C.3   199  ASP199      0.1805
    109  C         51.8510    5.4890   19.7160 C.2   199  ASP199      0.2598
    110  O         52.8020    6.1210   19.2170 O.2   199  ASP199     -0.2718
    111  CB        50.9340    5.7510   22.0190 C.3   199  ASP199      0.1424
    112  CG        49.4940    5.2960   21.8570 C.2   199  ASP199      0.3668
    113  OD1       49.2520    4.2610   21.1950 O.co2 199  ASP199     -0.2456
    114  OD2       48.5890    5.9670   22.4060 O.co2 199  ASP199     -0.2456
    115  N         50.7420    5.1920   19.0510 N.am  200  ALA200     -0.1966
    116  CA        50.5000    5.7070   17.7110 C.3   200  ALA200      0.1728
    117  C         49.6760    6.9460   18.0670 C.2   200  ALA200      0.2616
    118  O         49.2790    7.0960   19.2170 O.2   200  ALA200     -0.2715
    119  CB        49.6650    4.7170   16.8700 C.3   200  ALA200      0.0334
    120  N         49.4030    7.8110   17.0950 N.am  201  CYS201     -0.1954
    121  CA        48.6480    9.0420   17.3560 C.3   201  CYS201      0.1843
    122  C         47.8830    9.4790   16.0820 C.2   201  CYS201      0.2625
    123  O         47.9000    8.7840   15.0600 O.2   201  CYS201     -0.2714
    124  CB        49.6510   10.1260   17.7940 C.3   201  CYS201      0.0997
    125  SG        49.0250   11.5520   18.7470 S.3   201  CYS201     -0.0797
    126  N         47.2130   10.6260   16.1440 N.am  202  GLU202     -0.1963
    127  CA        46.4850   11.1340   14.9870 C.3   202  GLU202      0.1733
    128  C         47.3900   11.0940   13.7630 C.2   202  GLU202      0.2616
    129  O         48.5730   11.4640   13.8280 O.2   202  GLU202     -0.2715
    130  CB        46.0180   12.5660   15.2480 C.3   202  GLU202      0.0429
    131  CG        44.9980   12.6920   16.3940 C.3   202  GLU202      0.1163
    132  CD        43.6220   12.1440   16.0230 C.2   202  GLU202      0.3649
    133  OE1       42.9880   12.7030   15.1030 O.co2 202  GLU202     -0.2457
    134  OE2       43.1790   11.1510   16.6500 O.co2 202  GLU202     -0.2457
    135  N         46.8460   10.6210   12.6470 N.am  203  GLY203     -0.1955
    136  CA        47.6420   10.5330   11.4370 C.3   203  GLY203      0.1869
    137  C         48.3410    9.1930   11.2550 C.2   203  GLY203      0.2309
    138  O         48.8260    8.8860   10.1530 O.2   203  GLY203     -0.2863
    139  N         46.7740    6.3040   11.9060 N.3   205  SER205     -0.1217
    140  CA        45.7190    5.3730   11.4860 C.3   205  SER205      0.1889
    141  C         46.0110    4.7380   10.1310 C.2   205  SER205      0.2288
    142  O         46.5370    5.3800    9.2170 O.2   205  SER205     -0.2866
    143  CB        44.3780    6.0850   11.3870 C.3   205  SER205      0.2089
    144  OG        43.8340    6.3570   12.6770 O.3   205  SER205     -0.2183
    145  N         46.6560    0.3980   12.8470 N.3   225  VAL225     -0.1231
    146  CA        46.4040    1.4980   13.8020 C.3   225  VAL225      0.1692
    147  C         44.9790    1.9460   13.5560 C.2   225  VAL225      0.2593
    148  O         44.6250    2.3820   12.4390 O.2   225  VAL225     -0.2718
    149  CB        47.3450    2.7040   13.5640 C.3   225  VAL225      0.0266
    150  CG1       46.8740    3.8840   14.3890 C.3   225  VAL225      0.0020
    151  CG2       48.7730    2.3320   13.9270 C.3   225  VAL225      0.0020
    152  N         44.1560    1.8580   14.5880 N.am  226  SER226     -0.1938
    153  CA        42.7590    2.1850   14.4240 C.3   226  SER226      0.2055
    154  C         42.2160    3.2980   15.2930 C.2   226  SER226      0.2643
    155  O         41.6330    4.2510   14.7620 O.2   226  SER226     -0.2714
    156  CB        41.9190    0.9290   14.6210 C.3   226  SER226      0.2130
    157  OG        40.5370    1.2290   14.6230 O.3   226  SER226     -0.2179
    158  N         42.3560    3.1660   16.6110 N.am  227  TRP227     -0.1959
    159  CA        41.8890    4.2000   17.5180 C.3   227  TRP227      0.1771
    160  C         42.6050    4.2310   18.8670 C.2   227  TRP227      0.2620
    161  O         43.4670    3.4210   19.1470 O.2   227  TRP227     -0.2715
    162  CB        40.3780    4.1000   17.7410 C.3   227  TRP227      0.0590
    163  CG        39.8980    2.8170   18.3540 C.ar  227  TRP227      0.0006
    164  CD1       39.6070    1.6680   17.7030 C.ar  227  TRP227      0.0946
    165  CD2       39.5510    2.5950   19.7310 C.ar  227  TRP227      0.0152
    166  NE1       39.0860    0.7400   18.5750 N.ar  227  TRP227     -0.2442
    167  CE2       39.0410    1.2830   19.8280 C.ar  227  TRP227      0.0810
    168  CE3       39.6230    3.3820   20.8950 C.ar  227  TRP227      0.0012
    169  CZ2       38.5980    0.7320   21.0370 C.ar  227  TRP227      0.0191
    170  CZ3       39.1790    2.8290   22.1060 C.ar  227  TRP227      0.0001
    171  CH2       38.6740    1.5160   22.1600 C.ar  227  TRP227      0.0015
    172  N         42.2400    5.2100   19.6830 N.am  228  GLY228     -0.1940
    173  CA        42.8280    5.3820   21.0040 C.3   228  GLY228      0.2014
    174  C         42.2590    6.6480   21.6240 C.2   228  GLY228      0.2639
    175  O         41.6490    7.4580   20.9350 O.2   228  GLY228     -0.2714
    176  N         42.4340    6.8250   22.9250 N.am  229  GLU229     -0.1963
    177  CA        41.9260    8.0170   23.5820 C.3   229  GLU229      0.1733
    178  C         43.1510    8.8330   23.9690 C.2   229  GLU229      0.2617
    179  O         43.9530    8.4270   24.8250 O.2   229  GLU229     -0.2715
    180  CB        41.0810    7.5920   24.7660 C.3   229  GLU229      0.0429
    181  CG        39.8490    6.8570   24.2790 C.3   229  GLU229      0.1163
    182  CD        39.1800    6.0410   25.3450 C.2   229  GLU229      0.3649
    183  OE1       39.7800    5.0380   25.7950 O.co2 229  GLU229     -0.2457
    184  OE2       38.0510    6.4060   25.7270 O.co2 229  GLU229     -0.2457
    185  N         43.3050    9.9730   23.2970 N.am  230  GLY230     -0.1940
    186  CA        44.4810   10.7980   23.5050 C.3   230  GLY230      0.2014
    187  C         45.6090    9.9780   22.9070 C.2   230  GLY230      0.2639
    188  O         45.3370    9.0350   22.1580 O.2   230  GLY230     -0.2714
    189  N         46.8590   10.3190   23.2160 N.am  231  CYS231     -0.1967
    190  CA        48.0090    9.5710   22.7130 C.3   231  CYS231      0.1712
    191  C         48.9580    9.4330   23.9020 C.2   231  CYS231      0.2296
    192  O         49.2150   10.4020   24.5940 O.2   231  CYS231     -0.2864
    193  CB        48.7340   10.3280   21.5800 C.3   231  CYS231      0.0983
    194  SG        47.7210   10.7750   20.1300 S.3   231  CYS231     -0.0798
    195  N         48.6510    8.3480   26.8780 N.3   233  ARG233     -0.1245
    196  CA        48.0780    8.6640   28.1970 C.3   233  ARG233      0.1563
    197  C         48.3310    7.4370   29.0940 C.2   233  ARG233      0.2260
    198  O         48.3060    6.3010   28.6030 O.2   233  ARG233     -0.2867
    199  CB        46.5590    8.8880   28.0730 C.3   233  ARG233      0.0307
    200  CG        46.0910   10.3140   28.2420 C.3   233  ARG233      0.0489
    201  CD        45.2960   10.9100   27.0650 C.3   233  ARG233      0.2205
    202  NE        43.8490   10.9080   27.2880 N.pl3 233  ARG233     -0.0865
    203  CZ        42.9680   11.7200   26.6890 C.cat 233  ARG233      0.5346
    204  NH1       43.3480   12.6470   25.8210 N.pl3 233  ARG233      0.1354
    205  NH2       41.6680   11.5710   26.9210 N.pl3 233  ARG233      0.1354
    206  N         45.5280    2.6090   26.1490 N.3   237  TYR237     -0.1227
    207  CA        46.2680    1.8220   25.1770 C.3   237  TYR237      0.1736
    208  C         45.8240    2.0950   23.7460 C.2   237  TYR237      0.2596
    209  O         44.6770    2.4910   23.5010 O.2   237  TYR237     -0.2718
    210  CB        46.1030    0.3310   25.5270 C.3   237  TYR237      0.0548
    211  CG        46.5810   -0.0040   26.9340 C.ar  237  TYR237     -0.0200
    212  CD1       47.9390   -0.1950   27.2000 C.ar  237  TYR237     -0.0009
    213  CD2       45.6980    0.0250   28.0150 C.ar  237  TYR237     -0.0009
    214  CE1       48.4150   -0.3290   28.5090 C.ar  237  TYR237      0.0417
    215  CE2       46.1550   -0.1030   29.3290 C.ar  237  TYR237      0.0417
    216  CZ        47.5180   -0.2730   29.5660 C.ar  237  TYR237      0.1957
    217  OH        47.9910   -0.3430   30.8580 O.3   237  TYR237     -0.2866
    218  N         46.7360    1.9250   22.8010 N.am  238  GLY238     -0.1942
    219  CA        46.3510    2.1270   21.4200 C.3   238  GLY238      0.2014
    220  C         45.5570    0.9010   20.9700 C.2   238  GLY238      0.2639
    221  O         45.8380   -0.2250   21.4200 O.2   238  GLY238     -0.2714
    222  N         44.5350    1.1060   20.1420 N.am  239  PHE239     -0.1959
    223  CA        43.7750   -0.0220   19.6330 C.3   239  PHE239      0.1771
    224  C         44.0710   -0.2700   18.1510 C.2   239  PHE239      0.2619
    225  O         44.2750    0.6640   17.3590 O.2   239  PHE239     -0.2715
    226  CB        42.2930    0.1450   19.9050 C.3   239  PHE239      0.0574
    227  CG        41.9080   -0.2110   21.3090 C.ar  239  PHE239     -0.0200
    228  CD1       42.1020    0.6870   22.3480 C.ar  239  PHE239     -0.0042
    229  CD2       41.3890   -1.4640   21.6040 C.ar  239  PHE239     -0.0042
    230  CE1       41.7830    0.3390   23.6630 C.ar  239  PHE239     -0.0003
    231  CE2       41.0630   -1.8210   22.9190 C.ar  239  PHE239     -0.0003
    232  CZ        41.2630   -0.9180   23.9500 C.ar  239  PHE239     -0.0000
    233  N         44.1560   -1.5510   17.8080 N.am  240  TYR240     -0.1974
    234  CA        44.4710   -1.9790   16.4640 C.3   240  TYR240      0.1639
    235  C         43.4290   -2.9320   15.8910 C.2   240  TYR240      0.2290
    236  O         42.8340   -3.7430   16.6050 O.2   240  TYR240     -0.2864
    237  CB        45.8280   -2.6780   16.4530 C.3   240  TYR240      0.0560
    238  CG        46.9450   -1.8080   16.9550 C.ar  240  TYR240     -0.0198
    239  CD1       47.0520   -1.4980   18.3080 C.ar  240  TYR240     -0.0009
    240  CD2       47.8260   -1.2000   16.0670 C.ar  240  TYR240     -0.0009
    241  CE1       48.0140   -0.5810   18.7730 C.ar  240  TYR240      0.0417
    242  CE2       48.7770   -0.2960   16.5120 C.ar  240  TYR240      0.0417
    243  CZ        48.8610    0.0150   17.8750 C.ar  240  TYR240      0.1957
    244  OH        49.7600    0.9540   18.3170 O.3   240  TYR240     -0.2866
@<TRIPOS>BOND
     1    20    19    2
     2     4     3    2
     3    19    18    1
     4     1     2    1
     5     3     2    1
     6    21    18    1
     7    21    22    1
     8     5     2    1
     9     5     6    1
    10    18    17    1
    11    23    24    1
    12    17     9   am
    13     6    22    1
    14     9    10    2
    15     9     8    1
    16    38    37    2
    17     7     8    1
    18    24    25    1
    19    24    27    1
    20    57    55   ar
    21    57    58   ar
    22    25    26    2
    23     8    11    1
    24   142   141    2
    25    37    36    1
    26    55    54   ar
    27    60    58   ar
    28    60    62   ar
    29    27    28    1
    30    58    56   ar
    31   141   140    1
    32   138   137    2
    33    54    56   ar
    34    54    53    1
    35    72    71    1
    36    11    12    1
    37    62    61   ar
    38    56    59   ar
    39    36    39    1
    40    36    35    1
    41    39    40    1
    42    12    14   ar
    43    12    13   ar
    44    28    29   ar
    45    28    30   ar
    46    14    16   ar
    47   137   136    1
    48    53    50    1
    49   143   140    1
    50   143   144    1
    51   136   135    1
    52   140   139    1
    53    61    59   ar
    54    13    15   ar
    55    29    31   ar
    56    16    15   ar
    57    71    73    1
    58    71    70    2
    59    30    32   ar
    60    49    50    1
    61    45    42   ar
    62    45    47   ar
    63   148   147    2
    64    40    42   ar
    65    40    41   ar
    66    50    51    1
    67   135   128   am
    68    69    70    1
    69    69    68    1
    70   145   146    1
    71    68    67    1
    72    42    44   ar
    73    31    33   ar
    74    47    48   ar
    75    32    33   ar
    76    41    43   ar
    77   147   146    1
    78   147   152   am
    79   149   146    1
    80   149   151    1
    81   149   150    1
    82    51    63   am
    83    51    52    2
    84    63    64    1
    85   128   129    2
    86   128   127    1
    87    98    96    1
    88    33    34    1
    89    94    93    2
    90    67    64    1
    91    44    43   ar
    92    44    46   ar
    93   153   152    1
    94   153   156    1
    95   153   154    1
    96    48    46   ar
    97    64    65    1
    98   156   157    1
    99    93    92    1
   100    97    96    1
   101   155   154    2
   102    92    95    1
   103    92    91    1
   104    96    95    1
   105   127   130    1
   106   127   126    1
   107   123   122    2
   108   133   132   ar
   109   130   131    1
   110   154   158   am
   111   235   234    1
   112   235   236    2
   113    91    85   am
   114   132   131    1
   115   132   134   ar
   116    65    74   am
   117    65    66    2
   118   240   242   ar
   119   240   238   ar
   120   122   126   am
   121   122   121    1
   122    74    75    1
   123   237   234    1
   124   237   238    1
   125   234   233    1
   126   242   243   ar
   127   158   159    1
   128   119   116    1
   129   238   239   ar
   130   120   121    1
   131   120   117   am
   132    85    86    2
   133    85    84    1
   134    89    88    2
   135   121   124    1
   136   225   224    2
   137   159   162    1
   138   159   160    1
   139    83    84    1
   140    83    76   am
   141    75    78    1
   142    75    76    1
   143   164   163   ar
   144   164   166   ar
   145   116   117    1
   146   116   115    1
   147   162   163    1
   148   124   125    1
   149   233   224   am
   150   243   244    1
   151   243   241   ar
   152    78    79    1
   153   117   118    2
   154   224   223    1
   155    84    87    1
   156    76    77    2
   157   239   241   ar
   158   163   165   ar
   159    88    87    1
   160    88    90   am
   161   166   167   ar
   162    81    80   ar
   163   125   194    1
   164   160   161    2
   165   160   172   am
   166   115   109   am
   167   110   109    2
   168    79    80    1
   169    80    82   ar
   170   223   226    1
   171   223   222    1
   172   172   173    1
   173   109   108    1
   174   165   167   ar
   175   165   168   ar
   176   167   169   ar
   177   226   227    1
   178   194   193    1
   179   222   220   am
   180   168   170   ar
   181   175   174    2
   182   220   221    2
   183   220   219    1
   184   173   174    1
   185   169   171   ar
   186   108   107    1
   187   108   111    1
   188   113   112   ar
   189   227   229   ar
   190   227   228   ar
   191   219   218    1
   192   193   190    1
   193   229   231   ar
   194   174   176   am
   195   112   111    1
   196   112   114   ar
   197   105   103    1
   198   170   171   ar
   199   188   187    2
   200   228   230   ar
   201   106   104    1
   202   190   189    1
   203   190   191    1
   204   218   208   am
   205   187   189   am
   206   187   186    1
   207   231   232   ar
   208   176   177    1
   209   103   104    1
   210   103   100    1
   211   185   186    1
   212   185   178   am
   213   209   208    2
   214   177   178    1
   215   177   180    1
   216   230   232   ar
   217   208   207    1
   218   191   192    2
   219   178   179    2
   220   181   180    1
   221   181   182    1
   222   101   100    1
   223   101   102    2
   224   100    99    1
   225   207   210    1
   226   207   206    1
   227   182   184   ar
   228   182   183   ar
   229   210   211    1
   230   204   203    1
   231   203   205    1
   232   203   202    2
   233   195   196    1
   234   211   212   ar
   235   211   213   ar
   236   201   202    1
   237   201   200    1
   238   212   214   ar
   239   213   215   ar
   240   199   196    1
   241   199   200    1
   242   196   197    1
   243   214   216   ar
   244   198   197    2
   245   215   216   ar
   246   216   217    1
