@<TRIPOS>MOLECULE
tmp/1nunB00.pdb
 99 90 0 0 0
SMALL
GASTEIGER

@<TRIPOS>ATOM
      1  N        -10.2430  -49.0210  -41.8150 N.3   133  HIS133     -0.1241
      2  CA        -9.0260  -49.2260  -42.5760 C.3   133  HIS133      0.1621
      3  C         -9.4650  -49.0610  -44.0320 C.2   133  HIS133      0.2264
      4  O        -10.3020  -49.8170  -44.5290 O.2   133  HIS133     -0.2867
      5  CB        -8.4850  -50.6350  -42.3200 C.3   133  HIS133      0.0745
      6  CG        -7.1110  -50.8680  -42.8730 C.ar  133  HIS133      0.0817
      7  ND1       -5.9870  -50.2470  -42.3660 N.ar  133  HIS133     -0.2268
      8  CD2       -6.6840  -51.6300  -43.9080 C.ar  133  HIS133      0.1154
      9  CE1       -4.9300  -50.6160  -43.0660 C.ar  133  HIS133      0.1986
     10  NE2       -5.3260  -51.4540  -44.0080 N.ar  133  HIS133     -0.2212
     11  N         -8.5550  -48.7650  -48.1800 N.3   135  GLN135     -0.1245
     12  CA        -7.5670  -49.2370  -49.1320 C.3   135  GLN135      0.1566
     13  C         -8.0840  -49.1080  -50.5560 C.2   135  GLN135      0.2260
     14  O         -9.1650  -49.5870  -50.8740 O.2   135  GLN135     -0.2867
     15  CB        -7.0890  -50.6750  -48.7940 C.3   135  GLN135      0.0367
     16  CG        -8.0810  -51.8370  -48.8580 C.3   135  GLN135      0.0905
     17  CD        -7.5610  -53.1080  -48.1200 C.2   135  GLN135      0.2608
     18  OE1       -6.3470  -53.3770  -48.0520 O.2   135  GLN135     -0.2717
     19  NE2       -8.4920  -53.8900  -47.5790 N.am  135  GLN135     -0.0878
     20  N         -8.0060  -50.2210  -54.0850 N.3   137  ILE137     -0.1245
     21  CA        -7.6180  -51.3530  -54.9160 C.3   137  ILE137      0.1561
     22  C         -7.8260  -51.0420  -56.4010 C.2   137  ILE137      0.2260
     23  O         -8.7370  -50.3040  -56.7540 O.2   137  ILE137     -0.2867
     24  CB        -8.4710  -52.6160  -54.5450 C.3   137  ILE137      0.0252
     25  CG1       -8.0730  -53.1470  -53.1690 C.3   137  ILE137      0.0019
     26  CG2       -8.2800  -53.7240  -55.5730 C.3   137  ILE137      0.0019
     27  CD1       -8.2040  -52.1470  -52.0630 C.3   137  ILE137      0.0001
     28  N         -4.9840  -58.0230  -58.2810 N.3   155  LEU155     -0.1245
     29  CA        -5.2860  -56.7140  -57.6940 C.3   155  LEU155      0.1561
     30  C         -4.0620  -56.0350  -57.1020 C.2   155  LEU155      0.2260
     31  O         -3.1860  -56.6980  -56.5480 O.2   155  LEU155     -0.2867
     32  CB        -6.3270  -56.8640  -56.5920 C.3   155  LEU155      0.0270
     33  CG        -7.6330  -57.5390  -56.9910 C.3   155  LEU155      0.0019
     34  CD1       -8.4580  -57.7680  -55.7440 C.3   155  LEU155      0.0001
     35  CD2       -8.3750  -56.6800  -58.0110 C.3   155  LEU155      0.0001
     36  N        -10.8020  -48.6650  -63.5270 N.3   183  GLU183     -0.1245
     37  CA       -11.6280  -48.5710  -62.3350 C.3   183  GLU183      0.1567
     38  C        -10.7770  -48.4610  -61.0820 C.2   183  GLU183      0.2260
     39  O         -9.8170  -49.1960  -60.9310 O.2   183  GLU183     -0.2867
     40  CB       -12.5080  -49.8190  -62.2340 C.3   183  GLU183      0.0388
     41  CG       -13.6970  -49.6850  -61.2930 C.3   183  GLU183      0.1160
     42  CD       -14.5390  -50.9500  -61.2300 C.2   183  GLU183      0.3649
     43  OE1      -14.6580  -51.6120  -62.2780 O.co2 183  GLU183     -0.2457
     44  OE2      -15.0900  -51.2840  -60.1480 O.co2 183  GLU183     -0.2457
     45  N        -11.1700  -48.8700  -57.1630 N.3   185  ILE185     -0.1245
     46  CA       -12.0370  -49.3020  -56.0790 C.3   185  ILE185      0.1561
     47  C        -11.6070  -48.7080  -54.7570 C.2   185  ILE185      0.2260
     48  O        -10.4250  -48.5420  -54.4880 O.2   185  ILE185     -0.2867
     49  CB       -12.0050  -50.8220  -55.9100 C.3   185  ILE185      0.0252
     50  CG1      -12.5790  -51.4990  -57.1630 C.3   185  ILE185      0.0019
     51  CG2      -12.7530  -51.2130  -54.6400 C.3   185  ILE185      0.0019
     52  CD1      -11.9040  -52.8220  -57.5220 C.3   185  ILE185      0.0001
     53  N        -12.1980  -49.4860  -50.8340 N.3   187  LYS187     -0.1245
     54  CA       -12.7440  -50.4630  -49.9100 C.3   187  LYS187      0.1561
     55  C        -12.3770  -50.1070  -48.5000 C.2   187  LYS187      0.2260
     56  O        -11.2100  -50.0720  -48.1640 O.2   187  LYS187     -0.2867
     57  CB       -12.1970  -51.8360  -50.2460 C.3   187  LYS187      0.0271
     58  CG       -12.6160  -52.9190  -49.2930 C.3   187  LYS187      0.0035
     59  CD       -12.0890  -54.2590  -49.7990 C.3   187  LYS187      0.0206
     60  CE       -12.5130  -55.3920  -48.8860 C.3   187  LYS187      0.1093
     61  NZ       -11.8830  -56.6800  -49.2730 N.3   187  LYS187     -0.1314
     62  N        -12.9620  -50.9660  -44.3930 N.3   189  SER189     -0.1217
     63  CA       -13.3790  -52.0800  -43.5510 C.3   189  SER189      0.1889
     64  C        -12.9050  -51.9040  -42.1430 C.2   189  SER189      0.2288
     65  O        -11.8570  -51.3070  -41.9200 O.2   189  SER189     -0.2866
     66  CB       -12.8180  -53.3810  -44.0920 C.3   189  SER189      0.2089
     67  OG       -11.6210  -53.1300  -44.7960 O.3   189  SER189     -0.2183
     68  N        -17.0140  -54.7340  -44.0060 N.3   194  GLN194     -0.1245
     69  CA       -16.4350  -53.7980  -44.9450 C.3   194  GLN194      0.1566
     70  C        -17.4610  -53.3230  -45.9540 C.2   194  GLN194      0.2260
     71  O        -18.5840  -53.8260  -46.0090 O.2   194  GLN194     -0.2867
     72  CB       -15.2680  -54.4480  -45.6780 C.3   194  GLN194      0.0367
     73  CG       -15.6210  -55.6730  -46.4960 C.3   194  GLN194      0.0905
     74  CD       -16.5830  -55.3820  -47.6510 C.2   194  GLN194      0.2608
     75  OE1      -16.3130  -54.5440  -48.5390 O.2   194  GLN194     -0.2717
     76  NE2      -17.7210  -56.0800  -47.6420 N.am  194  GLN194     -0.0878
     77  N        -17.5590  -51.1870  -50.1210 N.3   196  ASN196     -0.1225
     78  CA       -16.6710  -50.7960  -51.2140 C.3   196  ASN196      0.1785
     79  C        -17.4060  -50.2070  -52.4120 C.2   196  ASN196      0.2597
     80  O        -18.4140  -50.7470  -52.8540 O.2   196  ASN196     -0.2718
     81  CB       -15.8410  -52.0000  -51.6660 C.3   196  ASN196      0.1169
     82  CG       -16.6770  -53.0340  -52.3990 C.2   196  ASN196      0.2627
     83  OD1      -16.9980  -52.8710  -53.5810 O.2   196  ASN196     -0.2716
     84  ND2      -17.0480  -54.1000  -51.6960 N.am  196  ASN196     -0.0877
     85  N        -16.9030  -49.0990  -52.9360 N.am  197  GLN197     -0.1965
     86  CA       -17.5310  -48.4900  -54.0880 C.3   197  GLN197      0.1733
     87  C        -16.4240  -48.0340  -55.0180 C.2   197  GLN197      0.2617
     88  O        -15.3050  -47.7620  -54.5650 O.2   197  GLN197     -0.2715
     89  CB       -18.3830  -47.2900  -53.6640 C.3   197  GLN197      0.0408
     90  CG       -19.2970  -47.5730  -52.4900 C.3   197  GLN197      0.0908
     91  CD       -20.1880  -46.3920  -52.1380 C.2   197  GLN197      0.2608
     92  OE1      -19.7820  -45.2300  -52.2740 O.2   197  GLN197     -0.2717
     93  NE2      -21.4010  -46.6810  -51.6630 N.am  197  GLN197     -0.0878
     94  N        -16.7330  -47.9360  -56.3100 N.am  198  SER198     -0.1950
     95  CA       -15.7360  -47.5080  -57.2790 C.3   198  SER198      0.1924
     96  C        -16.1380  -46.3330  -58.1560 C.2   198  SER198      0.2314
     97  O        -17.2690  -45.8470  -58.1000 O.2   198  SER198     -0.2863
     98  CB       -15.3400  -48.6820  -58.1650 C.3   198  SER198      0.2116
     99  OG       -16.4680  -49.4760  -58.4500 O.3   198  SER198     -0.2180
@<TRIPOS>BOND
     1    36    37    1
     2    37    40    1
     3    37    38    1
     4    43    42   ar
     5    40    41    1
     6    41    42    1
     7    42    44   ar
     8    38    39    2
     9    99    98    1
    10    28    29    1
    11    98    95    1
    12    96    97    2
    13    96    95    1
    14    35    33    1
    15    29    30    1
    16    29    32    1
    17    52    50    1
    18    95    94    1
    19    45    46    1
    20    50    49    1
    21    30    31    2
    22    33    32    1
    23    33    34    1
    24    23    22    2
    25    22    21    1
    26    94    87   am
    27    46    49    1
    28    46    47    1
    29    49    51    1
    30    26    24    1
    31    87    88    2
    32    87    86    1
    33    21    24    1
    34    21    20    1
    35    47    48    2
    36    24    25    1
    37    86    89    1
    38    86    85    1
    39    89    90    1
    40    83    82    2
    41    25    27    1
    42    85    79   am
    43    80    79    2
    44    90    91    1
    45    79    78    1
    46    82    84   am
    47    82    81    1
    48    92    91    2
    49    91    93   am
    50    81    78    1
    51    78    77    1
    52    14    13    2
    53    53    54    1
    54    13    12    1
    55    57    54    1
    56    57    58    1
    57    54    55    1
    58    59    58    1
    59    59    60    1
    60    61    60    1
    61    12    15    1
    62    12    11    1
    63    16    15    1
    64    16    17    1
    65    75    74    2
    66    55    56    2
    67    17    18    2
    68    17    19   am
    69    74    76   am
    70    74    73    1
    71    73    72    1
    72    71    70    2
    73    70    69    1
    74    72    69    1
    75    69    68    1
    76    67    66    1
    77     4     3    2
    78    62    63    1
    79    66    63    1
    80     3     2    1
    81    10     8   ar
    82    10     9   ar
    83     8     6   ar
    84    63    64    1
    85     9     7   ar
    86     6     7   ar
    87     6     5    1
    88     2     5    1
    89     2     1    1
    90    64    65    2
