@<TRIPOS>MOLECULE
tmp/1nupA00.pdb
 153 149 0 0 0
SMALL
GASTEIGER

@<TRIPOS>ATOM
      1  N          9.1310   15.1320   19.2930 N.3    10  CYS10      -0.1221
      2  CA        10.0100   14.3900   20.1840 C.3    10  CYS10       0.1808
      3  C         10.1930   13.0400   19.5430 C.2    10  CYS10       0.2602
      4  O          9.2160   12.4290   19.1300 O.2    10  CYS10      -0.2717
      5  CB         9.3430   14.2410   21.5590 C.3    10  CYS10       0.0970
      6  SG         9.4820   15.7570   22.5550 S.3    10  CYS10      -0.0800
      7  N         11.4330   12.5700   19.4460 N.am   11  GLY11      -0.1942
      8  CA        11.6850   11.2660   18.8520 C.3    11  GLY11       0.2014
      9  C         13.1810   10.9710   18.8410 C.2    11  GLY11       0.2639
     10  O         13.9730   11.7690   19.3310 O.2    11  GLY11      -0.2714
     11  N         13.5600    9.8140   18.3110 N.am   12  SER12      -0.1949
     12  CA        14.9690    9.4580   18.2260 C.3    12  SER12       0.1924
     13  C         15.8050   10.3200   17.2870 C.2    12  SER12       0.2314
     14  O         16.8980   10.7580   17.6730 O.2    12  SER12      -0.2863
     15  CB        15.1200    8.0040   17.7780 C.3    12  SER12       0.2116
     16  OG        14.8420    7.1390   18.8630 O.3    12  SER12      -0.2180
     17  N         15.6170   12.5260   21.6480 N.3    47  VAL47      -0.1245
     18  CA        15.4250   11.8810   22.9430 C.3    47  VAL47       0.1561
     19  C         16.7450   11.6090   23.6540 C.2    47  VAL47       0.2260
     20  O         17.8100   11.5620   23.0400 O.2    47  VAL47      -0.2867
     21  CB        14.6410   10.5750   22.7820 C.3    47  VAL47       0.0252
     22  CG1       15.5260    9.5130   22.1420 C.3    47  VAL47       0.0019
     23  CG2       14.0810   10.1190   24.1280 C.3    47  VAL47       0.0019
     24  N         17.1520    6.4740   27.0610 N.3    51  TYR51      -0.1241
     25  CA        15.8920    5.9070   26.6000 C.3    51  TYR51       0.1605
     26  C         15.8870    4.5820   25.8300 C.2    51  TYR51       0.2264
     27  O         16.7550    4.3120   25.0100 O.2    51  TYR51      -0.2867
     28  CB        15.1580    6.9420   25.7410 C.3    51  TYR51       0.0534
     29  CG        13.7910    6.4910   25.2510 C.ar   51  TYR51      -0.0201
     30  CD1       12.7410    6.2750   26.1490 C.ar   51  TYR51      -0.0009
     31  CD2       13.5450    6.2960   23.8920 C.ar   51  TYR51      -0.0009
     32  CE1       11.4610    5.8740   25.6980 C.ar   51  TYR51       0.0417
     33  CE2       12.2740    5.8940   23.4280 C.ar   51  TYR51       0.0417
     34  CZ        11.2410    5.6880   24.3410 C.ar   51  TYR51       0.1957
     35  OH         9.9870    5.2870   23.8960 O.3    51  TYR51      -0.2866
     36  N         16.5990   -0.0070   22.2250 N.3    54  LYS54      -0.1245
     37  CA        17.3750    0.0780   20.9930 C.3    54  LYS54       0.1561
     38  C         18.6230    0.9410   21.1720 C.2    54  LYS54       0.2260
     39  O         18.6660    1.8000   22.0530 O.2    54  LYS54      -0.2867
     40  CB        16.4950    0.6590   19.8860 C.3    54  LYS54       0.0271
     41  CG        17.1180    0.6730   18.5090 C.3    54  LYS54       0.0035
     42  CD        16.2100    1.4040   17.5400 C.3    54  LYS54       0.0206
     43  CE        14.8130    0.8060   17.5380 C.3    54  LYS54       0.1093
     44  NZ        13.8630    1.5950   16.7050 N.3    54  LYS54      -0.1314
     45  N         16.2050   18.5730   26.0730 N.3    82  GLU82      -0.1245
     46  CA        15.7820   17.2460   26.4980 C.3    82  GLU82       0.1567
     47  C         16.9210   16.2130   26.5650 C.2    82  GLU82       0.2260
     48  O         17.0450   15.4560   27.5390 O.2    82  GLU82      -0.2867
     49  CB        14.6710   16.7420   25.5600 C.3    82  GLU82       0.0388
     50  CG        14.2770   15.3020   25.7860 C.3    82  GLU82       0.1160
     51  CD        13.1690   14.8130   24.8660 C.2    82  GLU82       0.3649
     52  OE1       12.7400   13.6430   25.0270 O.co2  82  GLU82      -0.2457
     53  OE2       12.7330   15.5950   23.9860 O.co2  82  GLU82      -0.2457
     54  N         16.1350   10.2930   30.7600 N.3    88  TRP88      -0.1227
     55  CA        14.9710   10.3710   29.8810 C.3    88  TRP88       0.1737
     56  C         13.8550   11.0480   30.6500 C.2    88  TRP88       0.2595
     57  O         13.7770   10.9580   31.8820 O.2    88  TRP88      -0.2718
     58  CB        14.5210    8.9720   29.4560 C.3    88  TRP88       0.0564
     59  CG        13.2010    8.9380   28.7090 C.ar   88  TRP88       0.0003
     60  CD1       12.9710    9.3180   27.4090 C.ar   88  TRP88       0.0946
     61  CD2       11.9360    8.5010   29.2300 C.ar   88  TRP88       0.0152
     62  NE1       11.6370    9.1420   27.0910 N.ar   88  TRP88      -0.2442
     63  CE2       10.9800    8.6450   28.1920 C.ar   88  TRP88       0.0810
     64  CE3       11.5170    8.0020   30.4740 C.ar   88  TRP88       0.0012
     65  CZ2        9.6260    8.3040   28.3600 C.ar   88  TRP88       0.0191
     66  CZ3       10.1590    7.6600   30.6460 C.ar   88  TRP88       0.0001
     67  CH2        9.2340    7.8160   29.5870 C.ar   88  TRP88       0.0015
     68  N         12.9820   11.7150   29.9130 N.am   89  MET89      -0.1965
     69  CA        11.8830   12.4380   30.5160 C.3    89  MET89       0.1736
     70  C         10.6120   12.1380   29.7390 C.2    89  MET89       0.2616
     71  O         10.6430   12.1000   28.5110 O.2    89  MET89      -0.2715
     72  CB        12.2070   13.9150   30.4210 C.3    89  MET89       0.0427
     73  CG        11.1820   14.8270   30.9480 C.3    89  MET89       0.0599
     74  SD        11.9230   16.4340   30.9190 S.3    89  MET89      -0.1393
     75  CE        13.3090   16.1340   32.0520 C.3    89  MET89       0.0692
     76  N          9.5080   11.9160   30.4410 N.am   90  GLU90      -0.1963
     77  CA         8.2510   11.6490   29.7570 C.3    90  GLU90       0.1733
     78  C          7.9400   12.8490   28.8800 C.2    90  GLU90       0.2617
     79  O          8.2130   13.9750   29.2460 O.2    90  GLU90      -0.2715
     80  CB         7.1170   11.4090   30.7490 C.3    90  GLU90       0.0429
     81  CG         7.2880   10.1320   31.5090 C.3    90  GLU90       0.1163
     82  CD         7.7750   10.3930   32.9070 C.2    90  GLU90       0.3649
     83  OE1        8.8780   10.9850   33.0590 O.co2  90  GLU90      -0.2457
     84  OE2        7.0320   10.0220   33.8420 O.co2  90  GLU90      -0.2457
     85  N          7.3480   12.6000   27.7270 N.am   91  THR91      -0.1937
     86  CA         7.0770   13.6830   26.7950 C.3    91  THR91       0.2028
     87  C          6.2960   14.8510   27.3820 C.2    91  THR91       0.2642
     88  O          6.5510   16.0100   27.0480 O.2    91  THR91      -0.2714
     89  CB         6.3640   13.1310   25.5700 C.3    91  THR91       0.1808
     90  OG1        7.2010   12.1110   25.0100 O.3    91  THR91      -0.2208
     91  CG2        6.1440   14.2450   24.5140 C.3    91  THR91       0.0379
     92  N          5.3590   14.5650   28.2780 N.am   92  VAL92      -0.1977
     93  CA         4.5800   15.6680   28.8460 C.3    92  VAL92       0.1596
     94  C          5.4720   16.6760   29.5630 C.2    92  VAL92       0.2287
     95  O          5.2000   17.8770   29.5380 O.2    92  VAL92      -0.2864
     96  CB         3.4420   15.1500   29.7900 C.3    92  VAL92       0.0276
     97  CG1        4.0250   14.7120   31.1510 C.3    92  VAL92       0.0022
     98  CG2        2.3950   16.2340   29.9720 C.3    92  VAL92       0.0022
     99  N          1.6560    7.1130   16.6380 N.3   116  VAL116     -0.1245
    100  CA         1.8420    7.4470   18.0410 C.3   116  VAL116      0.1561
    101  C          0.5190    7.2970   18.7690 C.2   116  VAL116      0.2260
    102  O          0.4750    6.8920   19.9280 O.2   116  VAL116     -0.2867
    103  CB         2.3750    8.8890   18.2030 C.3   116  VAL116      0.0252
    104  CG1        2.2340    9.3500   19.6620 C.3   116  VAL116      0.0019
    105  CG2        3.8440    8.9410   17.7710 C.3   116  VAL116      0.0019
    106  N          0.2200    3.8450   19.9590 N.3   119  THR119     -0.1218
    107  CA         1.0160    3.5220   21.1390 C.3   119  THR119      0.1862
    108  C          0.3790    3.9790   22.4430 C.2   119  THR119      0.2287
    109  O          0.7350    3.4880   23.5170 O.2   119  THR119     -0.2866
    110  CB         2.4480    4.1200   21.0810 C.3   119  THR119      0.1770
    111  OG1        2.3990    5.5320   21.3230 O.3   119  THR119     -0.2211
    112  CG2        3.0770    3.8620   19.7460 C.3   119  THR119      0.0375
    113  N          2.5260    2.2210   28.9280 N.3   125  LEU125     -0.1231
    114  CA         3.4540    3.0710   28.1750 C.3   125  LEU125      0.1693
    115  C          3.3070    4.5600   28.4480 C.2   125  LEU125      0.2592
    116  O          4.3030    5.2730   28.6330 O.2   125  LEU125     -0.2718
    117  CB         3.3250    2.7830   26.6780 C.3   125  LEU125      0.0284
    118  CG         4.3600    3.4490   25.7650 C.3   125  LEU125      0.0019
    119  CD1        5.7740    2.9210   26.0390 C.3   125  LEU125      0.0001
    120  CD2        3.9690    3.1710   24.3280 C.3   125  LEU125      0.0001
    121  N          2.0610    5.0280   28.4900 N.am  126  TRP126     -0.1962
    122  CA         1.7640    6.4350   28.7620 C.3   126  TRP126      0.1771
    123  C          0.7500    6.5260   29.9150 C.2   126  TRP126      0.2619
    124  O         -0.2270    5.7800   29.9400 O.2   126  TRP126     -0.2715
    125  CB         1.1400    7.1200   27.5330 C.3   126  TRP126      0.0590
    126  CG         1.9360    7.1110   26.2670 C.ar  126  TRP126      0.0006
    127  CD1        2.0630    6.0780   25.3880 C.ar  126  TRP126      0.0946
    128  CD2        2.6380    8.2210   25.6850 C.ar  126  TRP126      0.0152
    129  NE1        2.7900    6.4720   24.2930 N.ar  126  TRP126     -0.2442
    130  CE2        3.1540    7.7850   24.4510 C.ar  126  TRP126      0.0810
    131  CE3        2.8750    9.5470   26.0910 C.ar  126  TRP126      0.0012
    132  CZ2        3.8940    8.6250   23.6050 C.ar  126  TRP126      0.0191
    133  CZ3        3.6090   10.3870   25.2490 C.ar  126  TRP126      0.0001
    134  CH2        4.1070    9.9210   24.0200 C.ar  126  TRP126      0.0015
    135  N          0.9720    7.4230   30.8640 N.am  127  LYS127     -0.1977
    136  CA         0.0190    7.5700   31.9610 C.3   127  LYS127      0.1596
    137  C         -1.2160    8.2580   31.4040 C.2   127  LYS127      0.2287
    138  O         -1.1030    9.2180   30.6430 O.2   127  LYS127     -0.2864
    139  CB         0.6100    8.4200   33.0790 C.3   127  LYS127      0.0298
    140  CG         1.8190    7.8010   33.7460 C.3   127  LYS127      0.0038
    141  CD         2.3380    8.6490   34.8870 C.3   127  LYS127      0.0206
    142  CE         3.6690    8.0880   35.4100 C.3   127  LYS127      0.1093
    143  NZ         4.2590    8.8990   36.5240 N.3   127  LYS127     -0.1314
    144  N         -1.1980   11.8000   31.6470 N.3   130  HIS130     -0.1241
    145  CA        -0.3140   12.4560   30.6970 C.3   130  HIS130      0.1621
    146  C         -0.9720   12.5640   29.3480 C.2   130  HIS130      0.2264
    147  O         -0.8850   13.5970   28.6940 O.2   130  HIS130     -0.2867
    148  CB         0.9900   11.6760   30.5590 C.3   130  HIS130      0.0745
    149  CG         1.9090   11.8550   31.7260 C.ar  130  HIS130      0.0817
    150  ND1        3.2050   11.3800   31.7380 N.ar  130  HIS130     -0.2268
    151  CD2        1.7250   12.4880   32.9100 C.ar  130  HIS130      0.1154
    152  CE1        3.7800   11.7180   32.8810 C.ar  130  HIS130      0.1986
    153  NE2        2.9040   12.3900   33.6090 N.ar  130  HIS130     -0.2212
@<TRIPOS>BOND
     1    99   100    1
     2    44    43    1
     3    13    14    2
     4    13    12    1
     5    43    42    1
     6    42    41    1
     7   105   103    1
     8    15    12    1
     9    15    16    1
    10   100   103    1
    11   100   101    1
    12   103   104    1
    13    12    11    1
    14    11     9   am
    15    41    40    1
    16   101   102    2
    17     9     8    1
    18     9    10    2
    19     8     7    1
    20     4     3    2
    21     1     2    1
    22     7     3   am
    23     3     2    1
    24   112   110    1
    25    40    37    1
    26   106   107    1
    27     2     5    1
    28    37    38    1
    29    37    36    1
    30   110   107    1
    31   110   111    1
    32   107   108    1
    33    38    39    2
    34     5     6    1
    35    17    18    1
    36    22    21    1
    37   108   109    2
    38    21    18    1
    39    21    23    1
    40    18    19    1
    41    20    19    2
    42    33    31   ar
    43    33    34   ar
    44   132   134   ar
    45   132   130   ar
    46    31    29   ar
    47    35    34    1
    48    53    51   ar
    49   134   133   ar
    50   129   130   ar
    51   129   127   ar
    52   120   118    1
    53    34    32   ar
    54   130   128   ar
    55    91    89    1
    56    51    52   ar
    57    51    50    1
    58    27    26    2
    59    90    89    1
    60   133   131   ar
    61    29    28    1
    62    29    30   ar
    63   127   126   ar
    64    49    50    1
    65    49    46    1
    66    89    86    1
    67   128   131   ar
    68   128   126   ar
    69    32    30   ar
    70    28    25    1
    71   118   119    1
    72   118   117    1
    73    26    25    1
    74    45    46    1
    75   126   125    1
    76    46    47    1
    77    47    48    2
    78    25    24    1
    79   117   114    1
    80    86    87    1
    81    86    85    1
    82    88    87    2
    83    62    60   ar
    84    62    63   ar
    85    87    92   am
    86    60    59   ar
    87   125   122    1
    88    85    78   am
    89   114   115    1
    90   114   113    1
    91    63    65   ar
    92    63    61   ar
    93    92    93    1
    94    65    67   ar
    95   115   121   am
    96   115   116    2
    97   121   122    1
    98    71    70    2
    99   147   146    2
   100    59    61   ar
   101    59    58    1
   102   122   123    1
   103    93    94    1
   104    93    96    1
   105    78    79    2
   106    78    77    1
   107    61    64   ar
   108   146   145    1
   109    58    55    1
   110    95    94    2
   111    67    66   ar
   112    70    76   am
   113    70    69    1
   114    77    76    1
   115    77    80    1
   116    96    98    1
   117    96    97    1
   118    55    56    1
   119    55    54    1
   120    68    69    1
   121    68    56   am
   122   123   124    2
   123   123   135   am
   124    72    69    1
   125    72    73    1
   126    64    66   ar
   127   148   145    1
   128   148   149    1
   129   138   137    2
   130    56    57    2
   131   145   144    1
   132    80    81    1
   133   135   136    1
   134    74    73    1
   135    74    75    1
   136   137   136    1
   137    81    82    1
   138   149   150   ar
   139   149   151   ar
   140   150   152   ar
   141   136   139    1
   142   152   153   ar
   143    82    83   ar
   144    82    84   ar
   145   151   153   ar
   146   139   140    1
   147   140   141    1
   148   141   142    1
   149   142   143    1
