@<TRIPOS>MOLECULE
tmp/1nusA01.pdb
 200 192 0 0 0
SMALL
GASTEIGER

@<TRIPOS>ATOM
      1  N          7.9870   18.0680   17.9690 N.3     9  ALA9       -0.1231
      2  CA         8.0890   16.6650   17.5840 C.3     9  ALA9        0.1694
      3  C          9.1040   15.9290   18.4400 C.2     9  ALA9        0.2592
      4  O         10.2900   16.2450   18.4190 O.2     9  ALA9       -0.2718
      5  CB         8.4580   16.5310   16.1240 C.3     9  ALA9        0.0304
      6  N          8.6210   14.9400   19.1850 N.am   10  CYS10      -0.1956
      7  CA         9.4640   14.1180   20.0470 C.3    10  CYS10       0.1843
      8  C          9.7510   12.7930   19.3720 C.2    10  CYS10       0.2626
      9  O          8.9290   12.2730   18.6250 O.2    10  CYS10      -0.2714
     10  CB         8.7770   13.9150   21.4020 C.3    10  CYS10       0.0997
     11  SG         8.9670   15.3620   22.4950 S.3    10  CYS10      -0.0797
     12  N         10.9280   12.2430   19.6120 N.am   11  GLY11      -0.1940
     13  CA        11.2520   10.9820   18.9820 C.3    11  GLY11       0.2014
     14  C         12.7460   10.7020   18.8750 C.2    11  GLY11       0.2640
     15  O         13.5950   11.4640   19.3490 O.2    11  GLY11      -0.2714
     16  N         13.0540    9.5810   18.2480 N.am   12  SER12      -0.1935
     17  CA        14.4180    9.1590   18.0710 C.3    12  SER12       0.2055
     18  C         15.2670   10.0250   17.1360 C.2    12  SER12       0.2643
     19  O         16.3590   10.4540   17.5390 O.2    12  SER12      -0.2714
     20  CB        14.4390    7.7130   17.5770 C.3    12  SER12       0.2130
     21  OG        14.2840    6.8260   18.6670 O.3    12  SER12      -0.2179
     22  N         14.7730   10.2590   15.9120 N.am   13  PHE13      -0.1959
     23  CA        15.5050   11.0210   14.8830 C.3    13  PHE13       0.1771
     24  C         16.8770   10.3760   14.8510 C.2    13  PHE13       0.2619
     25  O         17.8990   11.0120   15.0880 O.2    13  PHE13      -0.2715
     26  CB        15.5770   12.4790   15.2860 C.3    13  PHE13       0.0574
     27  CG        14.2390   13.0940   15.4070 C.ar   13  PHE13      -0.0200
     28  CD1       13.4280   13.2120   14.2760 C.ar   13  PHE13      -0.0042
     29  CD2       13.7260   13.4540   16.6530 C.ar   13  PHE13      -0.0042
     30  CE1       12.1160   13.6730   14.3860 C.ar   13  PHE13      -0.0003
     31  CE2       12.4200   13.9150   16.7810 C.ar   13  PHE13      -0.0003
     32  CZ        11.6070   14.0260   15.6490 C.ar   13  PHE13      -0.0000
     33  N         16.8560    9.0860   14.5360 N.am   14  ASN14      -0.1972
     34  CA        18.0340    8.2430   14.5600 C.3    14  ASN14       0.1688
     35  C         18.3360    7.5490   13.2460 C.2    14  ASN14       0.2292
     36  O         18.3680    6.3180   13.2040 O.2    14  ASN14      -0.2864
     37  CB        17.8050    7.2010   15.6510 C.3    14  ASN14       0.1181
     38  CG        18.9680    6.2350   15.8270 C.2    14  ASN14       0.2629
     39  OD1       18.7560    5.0230   15.9350 O.2    14  ASN14      -0.2716
     40  ND2       20.1800    6.7580   15.8880 N.am   14  ASN14      -0.0877
     41  N         15.0190   11.9800    8.9950 N.3    17  THR17      -0.1218
     42  CA        14.8460   11.6250    7.5880 C.3    17  THR17       0.1862
     43  C         14.0090   12.6690    6.8650 C.2    17  THR17       0.2287
     44  O         13.4620   13.5770    7.4940 O.2    17  THR17      -0.2866
     45  CB        14.0690   10.3090    7.4500 C.3    17  THR17       0.1770
     46  OG1       12.7450   10.5340    7.9320 O.3    17  THR17      -0.2211
     47  CG2       14.7290    9.1650    8.2620 C.3    17  THR17       0.0375
     48  N         11.2300   12.1190    5.6090 N.3    19  MET19      -0.1230
     49  CA         9.8540   11.9570    6.0390 C.3    19  MET19       0.1702
     50  C          9.5600   12.6370    7.3750 C.2    19  MET19       0.2592
     51  O          8.4830   13.2220    7.5480 O.2    19  MET19      -0.2718
     52  CB         9.4640   10.4800    6.0330 C.3    19  MET19       0.0401
     53  CG         9.3090    9.9700    4.5590 C.3    19  MET19       0.0596
     54  SD         8.3960   11.1140    3.3370 S.3    19  MET19      -0.1393
     55  CE         9.7570   12.2420    2.6170 C.3    19  MET19       0.0692
     56  N         10.5190   12.6000    8.3060 N.am   20  HIS20      -0.1976
     57  CA        10.3430   13.2860    9.5830 C.3    20  HIS20       0.1656
     58  C         10.1330   14.7690    9.3070 C.2    20  HIS20       0.2291
     59  O          9.2920   15.4030    9.9180 O.2    20  HIS20      -0.2864
     60  CB        11.5910   13.1510   10.4650 C.3    20  HIS20       0.0771
     61  CG        11.7840   11.7880   11.0290 C.ar   20  HIS20       0.0820
     62  ND1       13.0300   11.2440   11.2290 N.ar   20  HIS20      -0.2267
     63  CD2       10.8920   10.8550   11.4390 C.ar   20  HIS20       0.1154
     64  CE1       12.8990   10.0300   11.7390 C.ar   20  HIS20       0.1986
     65  NE2       11.6100    9.7720   11.8760 N.ar   20  HIS20      -0.2212
     66  N          6.8270   15.6730    7.6350 N.3    23  MET23      -0.1245
     67  CA         5.7660   15.6810    8.6480 C.3    23  MET23       0.1570
     68  C          5.4650   17.1160    9.1070 C.2    23  MET23       0.2261
     69  O          4.3050   17.5210    9.1700 O.2    23  MET23      -0.2867
     70  CB         6.1960   14.7720    9.8140 C.3    23  MET23       0.0387
     71  CG         5.2630   14.7440   11.0170 C.3    23  MET23       0.0595
     72  SD         5.8760   13.6200   12.3070 S.3    23  MET23      -0.1393
     73  CE         7.3120   14.5260   12.9080 C.3    23  MET23       0.0692
     74  N         16.4710    2.1280   24.6210 N.3    53  LYS53      -0.1231
     75  CA        16.2510    1.8920   23.2020 C.3    53  LYS53       0.1693
     76  C         17.2150    0.9730   22.4710 C.2    53  LYS53       0.2591
     77  O         18.4220    1.0250   22.6950 O.2    53  LYS53      -0.2718
     78  CB        16.2590    3.2300   22.4820 C.3    53  LYS53       0.0285
     79  CG        14.8950    3.7340   22.0860 C.3    53  LYS53       0.0035
     80  CD        14.3620    2.9270   20.9290 C.3    53  LYS53       0.0206
     81  CE        12.9780    3.3990   20.5330 C.3    53  LYS53       0.1093
     82  NZ        12.8920    3.6060   19.0580 N.3    53  LYS53      -0.1314
     83  N         16.6480    0.1600   21.5740 N.am   54  LYS54      -0.1980
     84  CA        17.3730   -0.7870   20.7110 C.3    54  LYS54       0.1596
     85  C         18.8450   -0.4440   20.7850 C.2    54  LYS54       0.2287
     86  O         19.7160   -1.2860   21.0410 O.2    54  LYS54      -0.2864
     87  CB        16.9380   -0.6000   19.2560 C.3    54  LYS54       0.0298
     88  CG        15.4520   -0.6570   19.0300 C.3    54  LYS54       0.0038
     89  CD        15.0590    0.0580   17.7390 C.3    54  LYS54       0.0206
     90  CE        14.9900    1.5640   17.9410 C.3    54  LYS54       0.1093
     91  NZ        14.1630    2.2150   16.8800 N.3    54  LYS54      -0.1314
     92  N          3.4560   17.1340   17.6020 N.3   111  LEU111     -0.1231
     93  CA         3.3680   16.6690   16.2300 C.3   111  LEU111      0.1693
     94  C          3.8940   15.2340   16.1790 C.2   111  LEU111      0.2592
     95  O          5.0080   14.9580   16.6480 O.2   111  LEU111     -0.2718
     96  CB         4.2110   17.5810   15.3440 C.3   111  LEU111      0.0284
     97  CG         4.5020   17.1020   13.9260 C.3   111  LEU111      0.0019
     98  CD1        3.1910   17.0370   13.1510 C.3   111  LEU111      0.0001
     99  CD2        5.4870   18.0670   13.2460 C.3   111  LEU111      0.0001
    100  N          3.0960   14.3180   15.6430 N.am  112  CYS112     -0.1956
    101  CA         3.5040   12.9180   15.5470 C.3   112  CYS112      0.1843
    102  C          2.8080   12.2100   14.4010 C.2   112  CYS112      0.2626
    103  O          1.8990   12.7620   13.8080 O.2   112  CYS112     -0.2714
    104  CB         3.1650   12.1730   16.8340 C.3   112  CYS112      0.0997
    105  SG         1.3800   12.0920   17.2240 S.3   112  CYS112     -0.0797
    106  N          3.2440   10.9880   14.0940 N.am  113  GLY113     -0.1954
    107  CA         2.6020   10.2080   13.0540 C.3   113  GLY113      0.1869
    108  C          1.4290    9.4480   13.6680 C.2   113  GLY113      0.2309
    109  O          1.3820    9.2750   14.8800 O.2   113  GLY113     -0.2863
    110  N          0.8620    6.4530   13.8750 N.3   115  ASP115     -0.1225
    111  CA         1.2700    5.2620   14.5960 C.3   115  ASP115      0.1805
    112  C          1.4450    5.5540   16.0870 C.2   115  ASP115      0.2597
    113  O          1.1420    4.7090   16.9220 O.2   115  ASP115     -0.2718
    114  CB         2.5600    4.6920   14.0140 C.3   115  ASP115      0.1424
    115  CG         3.6710    5.7270   13.9090 C.2   115  ASP115      0.3668
    116  OD1        3.4070    6.8620   13.4370 O.co2 115  ASP115     -0.2456
    117  OD2        4.8180    5.3840   14.2830 O.co2 115  ASP115     -0.2456
    118  N          1.9260    6.7460   16.4240 N.am  116  VAL116     -0.1980
    119  CA         2.1110    7.1080   17.8250 C.3   116  VAL116      0.1595
    120  C          0.7550    7.1070   18.4970 C.2   116  VAL116      0.2287
    121  O          0.5940    6.6180   19.6140 O.2   116  VAL116     -0.2864
    122  CB         2.7680    8.5150   17.9800 C.3   116  VAL116      0.0276
    123  CG1        2.6360    9.0080   19.4240 C.3   116  VAL116      0.0022
    124  CG2        4.2520    8.4390   17.6010 C.3   116  VAL116      0.0022
    125  N         -0.0370   13.1790   11.5950 N.3   143  VAL143     -0.1231
    126  CA         0.1080   13.0270   10.1480 C.3   143  VAL143      0.1692
    127  C         -0.1730   11.5760    9.7670 C.2   143  VAL143      0.2593
    128  O          0.3460   10.6400   10.3790 O.2   143  VAL143     -0.2718
    129  CB         1.5290   13.4440    9.6650 C.3   143  VAL143      0.0266
    130  CG1        1.6460   13.2190    8.1740 C.3   143  VAL143      0.0020
    131  CG2        1.7840   14.9130    9.9530 C.3   143  VAL143      0.0020
    132  N         -1.0170   11.3900    8.7630 N.am  144  GLY144     -0.1942
    133  CA        -1.3830   10.0450    8.3520 C.3   144  GLY144      0.2014
    134  C         -0.2210    9.1340    7.9900 C.2   144  GLY144      0.2638
    135  O          0.8370    9.5910    7.5650 O.2   144  GLY144     -0.2714
    136  N         -0.4280    7.8360    8.1930 N.am  145  ARG145     -0.1977
    137  CA         0.5540    6.8100    7.8650 C.3   145  ARG145      0.1597
    138  C         -0.1790    5.5770    7.3590 C.2   145  ARG145      0.2287
    139  O         -1.2300    5.2050    7.8850 O.2   145  ARG145     -0.2864
    140  CB         1.4000    6.4380    9.0810 C.3   145  ARG145      0.0334
    141  CG         2.1780    7.6110    9.6140 C.3   145  ARG145      0.0492
    142  CD         3.4490    7.1710   10.2880 C.3   145  ARG145      0.2205
    143  NE         4.3240    6.4710    9.3560 N.pl3 145  ARG145     -0.0865
    144  CZ         5.4710    5.9040    9.7110 C.cat 145  ARG145      0.5346
    145  NH1        5.8760    5.9630   10.9760 N.pl3 145  ARG145      0.1354
    146  NH2        6.2050    5.2670    8.8090 N.pl3 145  ARG145      0.1354
    147  N          4.8580    7.8550    1.5460 N.3   176  ASN176     -0.1225
    148  CA         6.2800    7.8120    1.8530 C.3   176  ASN176      0.1785
    149  C          6.5730    7.1290    3.1620 C.2   176  ASN176      0.2597
    150  O          6.6210    7.7660    4.2070 O.2   176  ASN176     -0.2718
    151  CB         6.8560    9.2130    1.8930 C.3   176  ASN176      0.1169
    152  CG         6.7900    9.9040    0.5580 C.2   176  ASN176      0.2627
    153  OD1        7.3720    9.4450   -0.4290 O.2   176  ASN176     -0.2716
    154  ND2        6.0800   11.0250    0.5160 N.am  176  ASN176     -0.0877
    155  N          6.7890    5.8260    3.0940 N.am  177  GLU177     -0.1965
    156  CA         7.0660    5.0620    4.2840 C.3   177  GLU177      0.1733
    157  C          8.5270    4.6010    4.3770 C.2   177  GLU177      0.2616
    158  O          8.8270    3.4040    4.3030 O.2   177  GLU177     -0.2715
    159  CB         6.1100    3.8710    4.3420 C.3   177  GLU177      0.0429
    160  CG         4.6160    4.2540    4.3960 C.3   177  GLU177      0.1163
    161  CD         4.1850    4.8790    5.7330 C.2   177  GLU177      0.3649
    162  OE1        4.7740    4.5320    6.7850 O.co2 177  GLU177     -0.2457
    163  OE2        3.2420    5.7030    5.7310 O.co2 177  GLU177     -0.2457
    164  N          9.4360    5.5630    4.5260 N.am  178  ILE178     -0.1963
    165  CA        10.8550    5.2600    4.6660 C.3   178  ILE178      0.1727
    166  C         11.0290    5.1650    6.1660 C.2   178  ILE178      0.2617
    167  O         10.6330    6.0780    6.8760 O.2   178  ILE178     -0.2715
    168  CB        11.7880    6.4240    4.1300 C.3   178  ILE178      0.0290
    169  CG1       11.6750    7.6750    5.0260 C.3   178  ILE178      0.0022
    170  CG2       11.4040    6.8040    2.7020 C.3   178  ILE178      0.0023
    171  CD1       12.4000    8.9390    4.4820 C.3   178  ILE178      0.0001
    172  N         11.5720    4.0660    6.6750 N.am  179  SER179     -0.1936
    173  CA        11.7740    3.9900    8.1180 C.3   179  SER179      0.2055
    174  C         13.2390    4.2190    8.4270 C.2   179  SER179      0.2643
    175  O         14.1160    3.8170    7.6510 O.2   179  SER179     -0.2714
    176  CB        11.3230    2.6390    8.6890 C.3   179  SER179      0.2130
    177  OG        12.1340    1.5690    8.2520 O.3   179  SER179     -0.2179
    178  N         13.5050    4.8870    9.5420 N.am  180  ALA180     -0.1963
    179  CA        14.8720    5.1470    9.9410 C.3   180  ALA180      0.1728
    180  C         15.5780    3.8050   10.1530 C.2   180  ALA180      0.2616
    181  O         16.8000    3.6980    9.9660 O.2   180  ALA180     -0.2715
    182  CB        14.9030    5.9900   11.2200 C.3   180  ALA180      0.0334
    183  N         14.8140    2.7830   10.5230 N.am  181  THR181     -0.1951
    184  CA        15.3840    1.4580   10.7200 C.3   181  THR181      0.1897
    185  C         16.0050    1.0130    9.3980 C.2   181  THR181      0.2313
    186  O         17.1540    0.5860    9.3550 O.2   181  THR181     -0.2863
    187  CB        14.3120    0.4300   11.1570 C.3   181  THR181      0.1794
    188  OG1       13.7950    0.8060   12.4390 O.3   181  THR181     -0.2208
    189  CG2       14.9130   -0.9710   11.2510 C.3   181  THR181      0.0378
    190  N         19.2220    2.9750    8.6510 N.3   184  ARG184     -0.1245
    191  CA        20.3800    2.4710    9.4020 C.3   184  ARG184      0.1563
    192  C         20.9640    1.1870    8.8050 C.2   184  ARG184      0.2260
    193  O         22.1900    1.0650    8.6430 O.2   184  ARG184     -0.2867
    194  CB        20.0040    2.2580   10.8820 C.3   184  ARG184      0.0307
    195  CG        19.6580    3.5530   11.6180 C.3   184  ARG184      0.0489
    196  CD        19.7070    3.3570   13.1200 C.3   184  ARG184      0.2205
    197  NE        18.6760    2.4270   13.5990 N.pl3 184  ARG184     -0.0865
    198  CZ        17.3850    2.7210   13.7220 C.cat 184  ARG184      0.5346
    199  NH1       16.9340    3.9380   13.4030 N.pl3 184  ARG184      0.1354
    200  NH2       16.5370    1.7980   14.1660 N.pl3 184  ARG184      0.1354
@<TRIPOS>BOND
     1   153   152    2
     2   154   152   am
     3   152   151    1
     4   147   148    1
     5   148   151    1
     6   148   149    1
     7    55    54    1
     8   170   168    1
     9   155   149   am
    10   155   156    1
    11   149   150    2
    12    54    53    1
    13   168   165    1
    14   168   169    1
    15   156   159    1
    16   156   157    1
    17   158   157    2
    18   159   160    1
    19   157   164   am
    20   160   161    1
    21   171   169    1
    22   164   165    1
    23    53    52    1
    24   165   166    1
    25    48    49    1
    26   163   161   ar
    27   161   162   ar
    28    52    49    1
    29    49    50    1
    30   166   172   am
    31   166   167    2
    32   172   173    1
    33    43    44    2
    34    43    42    1
    35   138   137    1
    36   138   139    2
    37    50    51    2
    38    50    56   am
    39    45    42    1
    40    45    46    1
    41    45    47    1
    42   135   134    2
    43    42    41    1
    44    66    67    1
    45   175   174    2
    46   137   136    1
    47   137   140    1
    48   134   136   am
    49   134   133    1
    50   173   174    1
    51   173   176    1
    52   130   129    1
    53   177   176    1
    54    56    57    1
    55   133   132    1
    56   174   178   am
    57   193   192    2
    58    67    68    1
    59    67    70    1
    60   190   191    1
    61   132   127   am
    62   192   191    1
    63   146   144    1
    64   140   141    1
    65    68    69    2
    66    58    57    1
    67    58    59    2
    68   186   185    2
    69   143   144    2
    70   143   142    1
    71   185   184    1
    72   191   194    1
    73   178   179    1
    74    57    60    1
    75   141   142    1
    76   129   131    1
    77   129   126    1
    78   144   145    1
    79   127   126    1
    80   127   128    2
    81    70    71    1
    82   179   180    1
    83   179   182    1
    84   181   180    2
    85   126   125    1
    86   180   183   am
    87    60    61    1
    88   183   184    1
    89   184   187    1
    90   194   195    1
    91    71    72    1
    92    61    62   ar
    93    61    63   ar
    94   187   189    1
    95   187   188    1
    96    62    64   ar
    97    63    65   ar
    98   195   196    1
    99    64    65   ar
   100    72    73    1
   101   107   108    1
   102   107   106    1
   103   196   197    1
   104    98    97    1
   105    36    35    2
   106    35    34    1
   107    99    97    1
   108   199   198    1
   109   116   115   ar
   110   197   198    2
   111   108   109    2
   112   198   200    1
   113   103   102    2
   114   110   111    1
   115   115   114    1
   116   115   117   ar
   117    97    96    1
   118   114   111    1
   119   106   102   am
   120    28    30   ar
   121    28    27   ar
   122    30    32   ar
   123   102   101    1
   124    33    34    1
   125    33    24   am
   126    34    37    1
   127   111   112    1
   128    24    23    1
   129    24    25    2
   130    23    26    1
   131    23    22    1
   132    26    27    1
   133    96    93    1
   134    27    29   ar
   135   101   100    1
   136   101   104    1
   137   100    94   am
   138    32    31   ar
   139    37    38    1
   140    38    40   am
   141    38    39    2
   142    22    18   am
   143   112   118   am
   144   112   113    2
   145     5     2    1
   146    94    93    1
   147    94    95    2
   148    93    92    1
   149   118   119    1
   150    29    31   ar
   151   104   105    1
   152    91    90    1
   153    18    19    2
   154    18    17    1
   155    20    17    1
   156    20    21    1
   157     2     1    1
   158     2     3    1
   159   124   122    1
   160    89    90    1
   161    89    88    1
   162   119   122    1
   163   119   120    1
   164   122   123    1
   165    17    16    1
   166    16    14   am
   167     4     3    2
   168     3     6   am
   169   120   121    2
   170     9     8    2
   171    14    13    1
   172    14    15    2
   173    13    12    1
   174    88    87    1
   175    82    81    1
   176     6     7    1
   177    87    84    1
   178     8    12   am
   179     8     7    1
   180     7    10    1
   181    81    80    1
   182    84    85    1
   183    84    83    1
   184    85    86    2
   185    80    79    1
   186    10    11    1
   187    83    76   am
   188    79    78    1
   189    76    77    2
   190    76    75    1
   191    78    75    1
   192    75    74    1
