@<TRIPOS>MOLECULE
tmp/1nuyA00.pdb
 134 129 0 0 0
SMALL
GASTEIGER

@<TRIPOS>ATOM
      1  N          8.4440    9.4700   19.6210 N.3   114  ASP114     -0.1225
      2  CA         8.1740    9.3940   21.0660 C.3   114  ASP114      0.1805
      3  C          7.7640    7.9560   21.3760 C.2   114  ASP114      0.2598
      4  O          6.9510    7.3690   20.6290 O.2   114  ASP114     -0.2718
      5  CB         6.9890   10.2670   21.4560 C.3   114  ASP114      0.1424
      6  CG         6.4620   10.0610   22.8700 C.2   114  ASP114      0.3668
      7  OD1        7.3110   10.3480   23.7320 O.co2 114  ASP114     -0.2456
      8  OD2        5.2800    9.6430   23.1020 O.co2 114  ASP114     -0.2456
      9  N          8.2920    7.4290   22.4740 N.am  115  GLY115     -0.1942
     10  CA         7.9280    6.1010   22.9590 C.3   115  GLY115      0.2014
     11  C          9.0920    5.1470   22.6510 C.2   115  GLY115      0.2640
     12  O          8.9120    3.9940   22.3080 O.2   115  GLY115     -0.2714
     13  N         10.3290    5.5820   22.7470 N.am  116  SER116     -0.1935
     14  CA        11.5230    4.8180   22.4500 C.3   116  SER116      0.2055
     15  C         11.5580    3.4010   22.9970 C.2   116  SER116      0.2643
     16  O         11.9640    2.4260   22.3490 O.2   116  SER116     -0.2714
     17  CB        12.7520    5.5310   23.1010 C.3   116  SER116      0.2130
     18  OG        13.8910    5.1010   22.4240 O.3   116  SER116     -0.2179
     19  N         11.1340    3.3030   24.2520 N.am  117  SER117     -0.1949
     20  CA        11.2410    2.0180   24.9460 C.3   117  SER117      0.1924
     21  C         10.2660    1.0300   24.3490 C.2   117  SER117      0.2314
     22  O         10.4970   -0.1710   24.5410 O.2   117  SER117     -0.2863
     23  CB        11.0550    2.1990   26.4610 C.3   117  SER117      0.2116
     24  OG         9.6970    2.3400   26.8890 O.3   117  SER117     -0.2180
     25  N          3.2500    5.0630   35.7450 N.3   205  ASN205     -0.1240
     26  CA         4.1300    3.9290   35.9560 C.3   205  ASN205      0.1653
     27  C          4.2950    3.7260   37.4730 C.2   205  ASN205      0.2266
     28  O          5.0160    4.4780   38.1330 O.2   205  ASN205     -0.2867
     29  CB         5.4590    4.2300   35.3060 C.3   205  ASN205      0.1155
     30  CG         6.4370    3.0950   35.3860 C.2   205  ASN205      0.2627
     31  OD1        6.2880    2.1670   36.2170 O.2   205  ASN205     -0.2716
     32  ND2        7.4690    3.1670   34.5170 N.am  205  ASN205     -0.0877
     33  N          7.4690    3.4300   40.0770 N.3   208  TYR208     -0.1241
     34  CA         8.0990    4.5160   40.7800 C.3   208  TYR208      0.1605
     35  C          7.4440    4.7200   42.1530 C.2   208  TYR208      0.2264
     36  O          7.7060    5.7540   42.7990 O.2   208  TYR208     -0.2867
     37  CB         8.0500    5.8370   39.9840 C.3   208  TYR208      0.0534
     38  CG         8.9690    5.7910   38.7810 C.ar  208  TYR208     -0.0201
     39  CD1       10.3580    5.7980   38.8150 C.ar  208  TYR208     -0.0009
     40  CD2        8.3640    5.7190   37.5460 C.ar  208  TYR208     -0.0009
     41  CE1       11.0990    5.7430   37.6370 C.ar  208  TYR208      0.0417
     42  CE2        9.0770    5.6530   36.3580 C.ar  208  TYR208      0.0417
     43  CZ        10.4480    5.6720   36.4140 C.ar  208  TYR208      0.1957
     44  OH        11.1670    5.6040   35.2330 O.3   208  TYR208     -0.2866
     45  N         -1.2070    1.7570   31.2120 N.3   237  TYR237     -0.1241
     46  CA         0.0220    2.5120   30.9660 C.3   237  TYR237      0.1605
     47  C          0.7770    1.8160   29.8390 C.2   237  TYR237      0.2264
     48  O          1.4790    0.8190   30.0480 O.2   237  TYR237     -0.2867
     49  CB         0.8810    2.6120   32.2150 C.3   237  TYR237      0.0534
     50  CG         2.0320    3.5830   32.1920 C.ar  237  TYR237     -0.0201
     51  CD1        1.7960    4.9590   32.2530 C.ar  237  TYR237     -0.0009
     52  CD2        3.3550    3.1320   32.1350 C.ar  237  TYR237     -0.0009
     53  CE1        2.8310    5.8860   32.2310 C.ar  237  TYR237      0.0417
     54  CE2        4.3830    4.0470   32.1340 C.ar  237  TYR237      0.0417
     55  CZ         4.1370    5.4150   32.1720 C.ar  237  TYR237      0.1957
     56  OH         5.1620    6.3360   32.2200 O.3   237  TYR237     -0.2866
     57  N          3.1050    3.1870   28.0470 N.3   239  GLY239     -0.1210
     58  CA         4.5100    3.5230   28.1730 C.3   239  GLY239      0.1956
     59  C          5.0350    4.3830   27.0400 C.2   239  GLY239      0.2613
     60  O          6.2420    4.6730   27.0000 O.2   239  GLY239     -0.2717
     61  N          4.1490    4.7940   26.1310 N.am  240  SER240     -0.1938
     62  CA         4.4490    5.8050   25.1230 C.3   240  SER240      0.2055
     63  C          3.5150    6.9800   25.4030 C.2   240  SER240      0.2642
     64  O          2.2910    6.7960   25.3980 O.2   240  SER240     -0.2714
     65  CB         4.1520    5.3170   23.6750 C.3   240  SER240      0.2130
     66  OG         5.0630    4.2820   23.3500 O.3   240  SER240     -0.2179
     67  N          4.0580    8.1640   25.6630 N.am  241  MET241     -0.1976
     68  CA         3.2180    9.3040   26.0240 C.3   241  MET241      0.1605
     69  C          2.1590    9.5340   24.9650 C.2   241  MET241      0.2287
     70  O          1.0120    9.7950   25.2990 O.2   241  MET241     -0.2864
     71  CB         4.1160   10.5490   26.1470 C.3   241  MET241      0.0413
     72  CG         3.2790   11.6970   26.7150 C.3   241  MET241      0.0598
     73  SD         4.1360   13.2780   26.4460 S.3   241  MET241     -0.1393
     74  CE         3.2480   14.2600   27.6520 C.3   241  MET241      0.0692
     75  N         -3.6380   11.0660   32.9800 N.3   255  PHE255     -0.1241
     76  CA        -2.3050   10.5820   32.7140 C.3   255  PHE255      0.1605
     77  C         -1.3280   11.3490   33.6080 C.2   255  PHE255      0.2264
     78  O         -1.4490   12.5920   33.6770 O.2   255  PHE255     -0.2867
     79  CB        -1.9560   10.8280   31.2430 C.3   255  PHE255      0.0534
     80  CG        -0.5050   10.5020   30.9240 C.ar  255  PHE255     -0.0203
     81  CD1       -0.0840    9.1850   30.7470 C.ar  255  PHE255     -0.0042
     82  CD2        0.4090   11.5360   30.8090 C.ar  255  PHE255     -0.0042
     83  CE1        1.2530    8.9180   30.5020 C.ar  255  PHE255     -0.0003
     84  CE2        1.7360   11.2760   30.5550 C.ar  255  PHE255     -0.0003
     85  CZ         2.1420    9.9740   30.3860 C.ar  255  PHE255     -0.0000
     86  N          2.8920   11.8960   34.8830 N.3   257  TYR257     -0.1241
     87  CA         4.3280   11.6920   34.8900 C.3   257  TYR257      0.1605
     88  C          4.8190   12.7790   35.8640 C.2   257  TYR257      0.2264
     89  O          5.3190   13.8140   35.4860 O.2   257  TYR257     -0.2867
     90  CB         5.0990   11.7220   33.5420 C.3   257  TYR257      0.0534
     91  CG         6.3480   10.8250   33.7420 C.ar  257  TYR257     -0.0201
     92  CD1        7.2870   11.0020   34.7410 C.ar  257  TYR257     -0.0009
     93  CD2        6.5880    9.7410   32.9240 C.ar  257  TYR257     -0.0009
     94  CE1        8.3660   10.2080   34.9280 C.ar  257  TYR257      0.0417
     95  CE2        7.6640    8.8920   33.0770 C.ar  257  TYR257      0.0417
     96  CZ         8.5820    9.1170   34.0870 C.ar  257  TYR257      0.1957
     97  OH         9.6720    8.3120   34.2720 O.3   257  TYR257     -0.2866
     98  N         10.2880   13.6680   34.2030 N.3   267  LYS267     -0.1231
     99  CA        11.0940   13.1330   33.1270 C.3   267  LYS267      0.1693
    100  C         10.7950   13.8280   31.8060 C.2   267  LYS267      0.2592
    101  O         11.6720   14.1430   31.0310 O.2   267  LYS267     -0.2718
    102  CB        10.8090   11.6200   32.9190 C.3   267  LYS267      0.0285
    103  CG        11.5650   11.1080   31.6940 C.3   267  LYS267      0.0035
    104  CD        11.2820    9.6010   31.4690 C.3   267  LYS267      0.0206
    105  CE        11.9520    9.1480   30.2010 C.3   267  LYS267      0.1093
    106  NZ        11.6530    7.7370   29.8610 N.3   267  LYS267     -0.1314
    107  N          9.4860   14.0050   31.5340 N.am  268  LEU268     -0.1966
    108  CA         9.0900   14.4710   30.1980 C.3   268  LEU268      0.1728
    109  C          9.5720   15.8800   29.9470 C.2   268  LEU268      0.2616
    110  O          9.7610   16.7360   30.8350 O.2   268  LEU268     -0.2715
    111  CB         7.5890   14.2630   30.0150 C.3   268  LEU268      0.0311
    112  CG         7.1120   12.8370   30.2640 C.3   268  LEU268      0.0022
    113  CD1        5.6310   12.7380   30.0240 C.3   268  LEU268      0.0001
    114  CD2        7.8760   11.8440   29.3900 C.3   268  LEU268      0.0001
    115  N          9.8290   16.1600   28.6740 N.am  269  ARG269     -0.1974
    116  CA        10.4820   17.4220   28.2690 C.3   269  ARG269      0.1640
    117  C          9.4230   18.4770   27.9120 C.2   269  ARG269      0.2290
    118  O          8.4690   18.2770   27.1660 O.2   269  ARG269     -0.2864
    119  CB        11.4390   17.1170   27.1170 C.3   269  ARG269      0.0589
    120  CG        12.8000   16.6240   27.6550 C.2   269  ARG269      0.0162
    121  CD        13.2090   15.2390   27.4350 C.2   269  ARG269      0.1886
    122  NE        12.2730   14.2110   26.9670 N.pl3 269  ARG269     -0.0578
    123  CZ        12.7150   13.1040   26.3810 C.cat 269  ARG269      0.5393
    124  NH1       14.0150   12.9450   26.2270 N.pl3 269  ARG269      0.1358
    125  NH2       11.8910   12.1610   25.9500 N.pl3 269  ARG269      0.1358
    126  N          7.2960   17.6840   24.5020 N.3   273  GLU273     -0.1245
    127  CA         6.4120   16.6530   24.9880 C.3   273  GLU273      0.1567
    128  C          5.3040   17.2900   25.8130 C.2   273  GLU273      0.2260
    129  O          4.1170   17.1930   25.4620 O.2   273  GLU273     -0.2867
    130  CB         7.0970   15.5500   25.8450 C.3   273  GLU273      0.0388
    131  CG         7.9970   14.6460   24.9550 C.3   273  GLU273      0.1160
    132  CD         8.9310   13.7420   25.7250 C.2   273  GLU273      0.3649
    133  OE1        9.1970   12.5850   25.3080 O.co2 273  GLU273     -0.2457
    134  OE2        9.4570   14.1700   26.7800 O.co2 273  GLU273     -0.2457
@<TRIPOS>BOND
     1     1     2    1
     2     4     3    2
     3     2     3    1
     4     2     5    1
     5     3     9   am
     6     5     6    1
     7    12    11    2
     8    16    15    2
     9    18    17    1
    10    14    13    1
    11    14    15    1
    12    14    17    1
    13     9    10    1
    14    11    13   am
    15    11    10    1
    16     6     8   ar
    17     6     7   ar
    18    15    19   am
    19    66    65    1
    20    65    62    1
    21    19    20    1
    22    21    22    2
    23    21    20    1
    24   126   127    1
    25    20    23    1
    26   131   132    1
    27   131   130    1
    28    69    70    2
    29    69    68    1
    30   127   128    1
    31   127   130    1
    32    62    63    1
    33    62    61    1
    34   133   132   ar
    35    64    63    2
    36    63    67   am
    37   129   128    2
    38    67    68    1
    39   132   134   ar
    40   125   123    1
    41    68    71    1
    42    61    59   am
    43    71    72    1
    44   124   123    1
    45   123   122    2
    46    73    72    1
    47    73    74    1
    48    23    24    1
    49   122   121    1
    50    60    59    2
    51    59    58    1
    52   119   120    1
    53   119   116    1
    54   118   117    2
    55   121   120    2
    56   117   116    1
    57    57    58    1
    58   116   115    1
    59   115   109   am
    60   114   112    1
    61    47    48    2
    62    47    46    1
    63   106   105    1
    64   109   108    1
    65   109   110    2
    66   111   108    1
    67   111   112    1
    68   113   112    1
    69   108   107    1
    70   105   104    1
    71    85    83   ar
    72    85    84   ar
    73    83    81   ar
    74    84    82   ar
    75    81    80   ar
    76    82    80   ar
    77    80    79    1
    78    46    45    1
    79    46    49    1
    80   101   100    2
    81    79    76    1
    82   104   103    1
    83   107   100   am
    84   103   102    1
    85   100    99    1
    86    54    52   ar
    87    54    55   ar
    88    52    50   ar
    89    55    56    1
    90    55    53   ar
    91    50    49    1
    92    50    51   ar
    93    53    51   ar
    94    76    75    1
    95    76    77    1
    96   102    99    1
    97    93    95   ar
    98    93    91   ar
    99    95    96   ar
   100    99    98    1
   101    90    91    1
   102    90    87    1
   103    77    78    2
   104    91    92   ar
   105    96    97    1
   106    96    94   ar
   107    32    30   am
   108    92    94   ar
   109    86    87    1
   110    87    88    1
   111    44    43    1
   112    29    30    1
   113    29    26    1
   114    30    31    2
   115    89    88    2
   116    25    26    1
   117    26    27    1
   118    42    43   ar
   119    42    40   ar
   120    43    41   ar
   121    27    28    2
   122    40    38   ar
   123    41    39   ar
   124    38    39   ar
   125    38    37    1
   126    37    34    1
   127    33    34    1
   128    34    35    1
   129    35    36    2
