@<TRIPOS>MOLECULE
tmp/1nv8A01.pdb
 96 94 0 0 0
SMALL
GASTEIGER

@<TRIPOS>ATOM
      1  N         21.3980  -33.5110  -14.4190 N.3    89  PHE89      -0.1241
      2  CA        20.7840  -32.3700  -13.7960 C.3    89  PHE89       0.1605
      3  C         21.6570  -31.1090  -13.9090 C.2    89  PHE89       0.2264
      4  O         22.8450  -31.1450  -13.6290 O.2    89  PHE89      -0.2867
      5  CB        20.5440  -32.7350  -12.3550 C.3    89  PHE89       0.0534
      6  CG        19.7740  -31.7100  -11.5590 C.ar   89  PHE89      -0.0203
      7  CD1       18.3750  -31.7320  -11.5330 C.ar   89  PHE89      -0.0042
      8  CD2       20.4230  -30.7790  -10.7700 C.ar   89  PHE89      -0.0042
      9  CE1       17.6830  -30.8310  -10.7900 C.ar   89  PHE89      -0.0003
     10  CE2       19.7190  -29.8990   -9.9990 C.ar   89  PHE89      -0.0003
     11  CZ        18.3270  -29.9420  -10.0200 C.ar   89  PHE89      -0.0000
     12  N         21.5330  -25.6690  -10.0800 N.3    92  ARG92      -0.1245
     13  CA        20.7700  -24.4970   -9.6640 C.3    92  ARG92       0.1563
     14  C         21.4550  -23.5530   -8.6740 C.2    92  ARG92       0.2260
     15  O         22.2390  -23.9820   -7.8440 O.2    92  ARG92      -0.2867
     16  CB        19.4870  -24.9700   -8.9560 C.3    92  ARG92       0.0307
     17  CG        18.7650  -26.0890   -9.7480 C.3    92  ARG92       0.0489
     18  CD        18.1430  -25.6030  -11.0110 C.3    92  ARG92       0.2205
     19  NE        16.9680  -26.4360  -11.2770 N.pl3  92  ARG92      -0.0865
     20  CZ        16.9050  -27.4430  -12.1050 C.cat  92  ARG92       0.5346
     21  NH1       17.9380  -27.8330  -12.8570 N.pl3  92  ARG92       0.1354
     22  NH2       15.7800  -28.0760  -12.1700 N.pl3  92  ARG92       0.1354
     23  N         22.4830  -32.6610   -2.5900 N.3   186  ASN186     -0.1226
     24  CA        21.2940  -31.9920   -3.1080 C.3   186  ASN186      0.1770
     25  C         20.5200  -33.0670   -3.8160 C.2   186  ASN186      0.2439
     26  O         20.6920  -33.3610   -5.0290 O.2   186  ASN186     -0.2733
     27  CB        21.5730  -30.8200   -4.0390 C.3   186  ASN186      0.1168
     28  CG        20.2500  -30.3440   -4.7810 C.2   186  ASN186      0.2627
     29  OD1       19.1990  -30.4450   -4.1960 O.2   186  ASN186     -0.2716
     30  ND2       20.3480  -29.8300   -6.0200 N.am  186  ASN186     -0.0877
     31  N         19.6960  -33.7550   -3.0520 N.am  187  PRO187     -0.2718
     32  CA        19.0880  -34.9660   -3.5910 C.3   187  PRO187      0.1520
     33  C         17.7630  -34.6780   -4.3530 C.2   187  PRO187      0.2440
     34  O         17.1050  -33.7050   -4.0890 O.2   187  PRO187     -0.2731
     35  CB        18.8410  -35.7870   -2.3570 C.3   187  PRO187      0.0310
     36  CG        18.4070  -34.7400   -1.3480 C.3   187  PRO187      0.0237
     37  CD        19.3000  -33.4930   -1.6770 C.3   187  PRO187      0.0939
     38  N         17.2450  -35.6560   -5.0780 N.am  188  PRO188     -0.2716
     39  CA        15.8890  -35.4740   -5.6450 C.3   188  PRO188      0.1536
     40  C         14.9150  -35.3310   -4.4640 C.2   188  PRO188      0.2599
     41  O         14.7570  -36.1810   -3.5600 O.2   188  PRO188     -0.2715
     42  CB        15.6140  -36.7990   -6.3910 C.3   188  PRO188      0.0310
     43  CG        16.7080  -37.7850   -5.8900 C.3   188  PRO188      0.0237
     44  CD        17.7310  -37.0250   -5.1520 C.3   188  PRO188      0.0939
     45  N         14.2130  -34.2430   -4.4400 N.am  189  TYR189     -0.1960
     46  CA        13.2210  -34.1200   -3.3810 C.3   189  TYR189      0.1771
     47  C         11.8090  -33.7130   -3.8340 C.2   189  TYR189      0.2619
     48  O         11.0720  -33.1340   -3.0500 O.2   189  TYR189     -0.2715
     49  CB        13.6940  -33.1200   -2.3600 C.3   189  TYR189      0.0574
     50  CG        14.2010  -31.7530   -2.8500 C.ar  189  TYR189     -0.0198
     51  CD1       13.3290  -30.7770   -3.4400 C.ar  189  TYR189     -0.0009
     52  CD2       15.4900  -31.3640   -2.5260 C.ar  189  TYR189     -0.0009
     53  CE1       13.8120  -29.5270   -3.7570 C.ar  189  TYR189      0.0417
     54  CE2       15.9740  -30.1420   -2.8280 C.ar  189  TYR189      0.0417
     55  CZ        15.1430  -29.2250   -3.4840 C.ar  189  TYR189      0.1957
     56  OH        15.7470  -28.0340   -3.8060 O.3   189  TYR189     -0.2866
     57  N         11.4740  -33.9730   -5.0970 N.am  190  VAL190     -0.1977
     58  CA        10.1590  -33.5580   -5.6730 C.3   190  VAL190      0.1596
     59  C          9.1350  -34.6980   -5.5380 C.2   190  VAL190      0.2287
     60  O          9.4890  -35.8400   -5.6480 O.2   190  VAL190     -0.2864
     61  CB        10.3030  -33.0870   -7.1620 C.3   190  VAL190      0.0276
     62  CG1        8.9700  -32.3760   -7.6930 C.3   190  VAL190      0.0022
     63  CG2       11.4570  -32.0280   -7.2960 C.3   190  VAL190      0.0022
     64  N         16.7930  -37.7070  -11.0080 N.3   207  ALA207     -0.1231
     65  CA        17.4800  -36.5690  -10.4480 C.3   207  ALA207      0.1694
     66  C         16.4760  -35.7030   -9.7380 C.2   207  ALA207      0.2591
     67  O         16.8520  -34.8220   -8.9030 O.2   207  ALA207     -0.2718
     68  CB        18.1760  -35.7600  -11.5080 C.3   207  ALA207      0.0304
     69  N         15.1900  -35.9320  -10.0100 N.am  208  LEU208     -0.1980
     70  CA        14.1910  -35.0010   -9.4700 C.3   208  LEU208      0.1596
     71  C         13.2680  -35.5650   -8.3880 C.2   208  LEU208      0.2287
     72  O         12.9240  -34.8170   -7.5330 O.2   208  LEU208     -0.2864
     73  CB        13.2600  -34.3950  -10.5820 C.3   208  LEU208      0.0297
     74  CG        13.8730  -33.6090  -11.7660 C.3   208  LEU208      0.0022
     75  CD1       12.9550  -33.7240  -13.0240 C.3   208  LEU208      0.0001
     76  CD2       14.1060  -32.1640  -11.4610 C.3   208  LEU208      0.0001
     77  N         20.1970  -30.1600    0.8850 N.3   235  GLU235     -0.1245
     78  CA        19.1230  -29.3010    0.3490 C.3   235  GLU235      0.1567
     79  C         17.8350  -30.0880    0.5000 C.2   235  GLU235      0.2260
     80  O         17.8540  -31.3140    0.4570 O.2   235  GLU235     -0.2867
     81  CB        19.3690  -28.9730   -1.0570 C.3   235  GLU235      0.0388
     82  CG        18.5120  -27.8310   -1.5790 C.3   235  GLU235      0.1160
     83  CD        18.9180  -27.3900   -3.0120 C.2   235  GLU235      0.3649
     84  OE1       18.0090  -27.3140   -3.9010 O.co2 235  GLU235     -0.2457
     85  OE2       20.1450  -27.1580   -3.2610 O.co2 235  GLU235     -0.2457
     86  N         15.3450  -24.3760    3.3540 N.3   262  ARG262     -0.1245
     87  CA        15.9370  -25.0090    2.1850 C.3   262  ARG262      0.1563
     88  C         17.0330  -26.0230    2.5610 C.2   262  ARG262      0.2260
     89  O         17.3810  -26.8570    1.7320 O.2   262  ARG262     -0.2867
     90  CB        16.6540  -23.9520    1.3170 C.3   262  ARG262      0.0307
     91  CG        16.0820  -23.6500   -0.0350 C.3   262  ARG262      0.0489
     92  CD        14.5620  -23.5010    0.0220 C.3   262  ARG262      0.2205
     93  NE        14.0430  -24.6530   -0.7030 N.pl3 262  ARG262     -0.0865
     94  CZ        14.0580  -24.7400   -2.0050 C.cat 262  ARG262      0.5346
     95  NH1       13.5980  -25.8510   -2.5290 N.pl3 262  ARG262      0.1354
     96  NH2       14.4960  -23.7150   -2.7660 N.pl3 262  ARG262      0.1354
@<TRIPOS>BOND
     1     1     2    1
     2     3     2    1
     3     3     4    2
     4     2     5    1
     5    75    74    1
     6    21    20    1
     7     5     6    1
     8    22    20    1
     9    20    19    2
    10    74    76    1
    11    74    73    1
    12     6     7   ar
    13     6     8   ar
    14     7     9   ar
    15    68    65    1
    16    19    18    1
    17    18    17    1
    18    64    65    1
    19     9    11   ar
    20     8    10   ar
    21    73    70    1
    22    65    66    1
    23    12    13    1
    24    11    10   ar
    25    69    66   am
    26    69    70    1
    27    17    16    1
    28    66    67    2
    29    13    16    1
    30    13    14    1
    31    70    71    1
    32    14    15    2
    33    71    72    2
    34    62    61    1
    35    63    61    1
    36    61    58    1
    37    42    43    1
    38    42    39    1
    39    30    28   am
    40    43    44    1
    41    58    59    1
    42    58    57    1
    43    60    59    2
    44    39    38    1
    45    39    40    1
    46    44    38    1
    47    57    47   am
    48    38    33   am
    49    26    25    2
    50    28    29    2
    51    28    27    1
    52    40    45   am
    53    40    41    2
    54    45    46    1
    55    33    34    2
    56    33    32    1
    57    27    24    1
    58    84    83   ar
    59    47    46    1
    60    47    48    2
    61    25    24    1
    62    25    31   am
    63    56    55    1
    64    53    55   ar
    65    53    51   ar
    66    32    31    1
    67    32    35    1
    68    55    54   ar
    69    51    50   ar
    70    46    49    1
    71    85    83   ar
    72    24    23    1
    73    31    37    1
    74    83    82    1
    75    50    52   ar
    76    50    49    1
    77    54    52   ar
    78    96    94    1
    79    95    94    1
    80    35    36    1
    81    94    93    2
    82    37    36    1
    83    82    81    1
    84    81    78    1
    85    93    92    1
    86    91    92    1
    87    91    90    1
    88    78    79    1
    89    78    77    1
    90    80    79    2
    91    90    87    1
    92    89    88    2
    93    87    88    1
    94    87    86    1
