@<TRIPOS>MOLECULE
tmp/1nvbB00.pdb
 127 117 0 0 0
SMALL
GASTEIGER

@<TRIPOS>ATOM
      1  N        110.5170    3.7440    9.5600 N.3   144  ASP144     -0.1239
      2  CA       111.7590    4.5430    9.6120 C.3   144  ASP144      0.1674
      3  C        112.9950    3.8750   10.2730 C.2   144  ASP144      0.2266
      4  O        114.0250    3.7260    9.6200 O.2   144  ASP144     -0.2867
      5  CB       111.4780    5.8640   10.3340 C.3   144  ASP144      0.1410
      6  CG       112.7010    6.7250   10.4550 C.2   144  ASP144      0.3668
      7  OD1      113.2980    7.0780    9.4220 O.co2 144  ASP144     -0.2456
      8  OD2      113.0890    7.0430   11.5920 O.co2 144  ASP144     -0.2456
      9  N        121.1870    2.7590    9.6960 N.3   150  LYS150     -0.1245
     10  CA       121.6930    3.5540   10.8140 C.3   150  LYS150      0.1561
     11  C        121.4490    2.8760   12.1550 C.2   150  LYS150      0.2260
     12  O        120.3220    2.4960   12.4710 O.2   150  LYS150     -0.2867
     13  CB       121.0440    4.9370   10.8360 C.3   150  LYS150      0.0271
     14  CG       121.8480    6.0120   10.1260 C.3   150  LYS150      0.0035
     15  CD       121.2380    7.3680   10.3780 C.3   150  LYS150      0.0206
     16  CE       122.0080    8.4860    9.7060 C.3   150  LYS150      0.1093
     17  NZ       121.3920    9.8020   10.0230 N.3   150  LYS150     -0.1314
     18  N        121.9860    8.9640   20.1620 N.3   160  ASN160     -0.1240
     19  CA       122.7830    8.2840   19.1590 C.3   160  ASN160      0.1653
     20  C        124.1040    8.9630   18.8470 C.2   160  ASN160      0.2266
     21  O        124.3410    9.3660   17.7090 O.2   160  ASN160     -0.2867
     22  CB       121.9640    8.1370   17.8750 C.3   160  ASN160      0.1155
     23  CG       120.5750    7.5950   18.1270 C.2   160  ASN160      0.2627
     24  OD1      120.4020    6.6260   18.8600 O.2   160  ASN160     -0.2716
     25  ND2      119.5760    8.2150   17.5120 N.am  160  ASN160     -0.0877
     26  N        106.9160    9.9300   12.3150 N.3   192  GLU192     -0.1245
     27  CA       107.8860    9.6540   11.2640 C.3   192  GLU192      0.1567
     28  C        107.2030    9.5750    9.9100 C.2   192  GLU192      0.2260
     29  O        107.7740    9.9780    8.8980 O.2   192  GLU192     -0.2867
     30  CB       108.6060    8.3350   11.5440 C.3   192  GLU192      0.0388
     31  CG       109.3790    8.3160   12.8450 C.3   192  GLU192      0.1160
     32  CD       110.6780    9.1010   12.7760 C.2   192  GLU192      0.3649
     33  OE1      110.6770   10.2560   12.2860 O.co2 192  GLU192     -0.2457
     34  OE2      111.7070    8.5530   13.2280 O.co2 192  GLU192     -0.2457
     35  N        106.4590   13.0660    8.9370 N.3   195  LYS195     -0.1245
     36  CA       107.7300   13.7180    8.6160 C.3   195  LYS195      0.1561
     37  C        108.1420   13.3920    7.1810 C.2   195  LYS195      0.2260
     38  O        108.3480   14.2880    6.3600 O.2   195  LYS195     -0.2867
     39  CB       108.8360   13.2360    9.5560 C.3   195  LYS195      0.0271
     40  CG       110.2110   13.8250    9.2330 C.3   195  LYS195      0.0035
     41  CD       111.3520   12.9760    9.7900 C.3   195  LYS195      0.0206
     42  CE       111.4640   11.6510    9.0500 C.3   195  LYS195      0.1093
     43  NZ       112.6080   10.8150    9.5140 N.3   195  LYS195     -0.1314
     44  N        112.1840    6.6350    2.1600 N.3   248  LYS248     -0.1245
     45  CA       113.4280    6.5760    2.9170 C.3   248  LYS248      0.1561
     46  C        114.4380    5.7640    2.1150 C.2   248  LYS248      0.2260
     47  O        115.6300    6.0790    2.0970 O.2   248  LYS248     -0.2867
     48  CB       113.2310    5.9390    4.2910 C.3   248  LYS248      0.0271
     49  CG       114.5440    5.8430    5.0720 C.3   248  LYS248      0.0035
     50  CD       114.3450    5.6360    6.5650 C.3   248  LYS248      0.0206
     51  CE       115.6810    5.6980    7.2750 C.3   248  LYS248      0.1093
     52  NZ       115.5410    5.6180    8.7480 N.3   248  LYS248     -0.1314
     53  N        125.0180    9.8190    4.7940 N.3   258  GLU258     -0.1245
     54  CA       124.6540   11.2020    5.0610 C.3   258  GLU258      0.1567
     55  C        125.7330   12.2170    4.6740 C.2   258  GLU258      0.2260
     56  O        126.3750   12.8310    5.5300 O.2   258  GLU258     -0.2867
     57  CB       124.2800   11.3350    6.5440 C.3   258  GLU258      0.0388
     58  CG       123.6960   12.6750    6.9810 C.3   258  GLU258      0.1160
     59  CD       122.9830   12.5720    8.3200 C.2   258  GLU258      0.3649
     60  OE1      123.5090   11.8630    9.2090 O.co2 258  GLU258     -0.2457
     61  OE2      121.9050   13.1960    8.4850 O.co2 258  GLU258     -0.2457
     62  N        120.6450   12.5930    2.7460 N.3   262  ARG262     -0.1245
     63  CA       120.1240   11.9510    3.9480 C.3   262  ARG262      0.1563
     64  C        119.8690   12.8850    5.1300 C.2   262  ARG262      0.2260
     65  O        119.2770   12.4800    6.1320 O.2   262  ARG262     -0.2867
     66  CB       121.0370   10.7920    4.3630 C.3   262  ARG262      0.0307
     67  CG       120.4920    9.9650    5.5120 C.3   262  ARG262      0.0489
     68  CD       121.0180    8.5450    5.5110 C.3   262  ARG262      0.2205
     69  NE       120.4470    7.7800    6.6170 N.pl3 262  ARG262     -0.0865
     70  CZ       120.5420    6.4600    6.7570 C.cat 262  ARG262      0.5346
     71  NH1      121.1900    5.7400    5.8520 N.pl3 262  ARG262      0.1354
     72  NH2      119.9810    5.8580    7.8040 N.pl3 262  ARG262      0.1354
     73  N        116.0660   13.4200    6.0720 N.3   265  LEU265     -0.1231
     74  CA       115.3670   12.4640    6.9220 C.3   265  LEU265      0.1693
     75  C        115.4750   12.8790    8.3890 C.2   265  LEU265      0.2592
     76  O        114.8850   12.2580    9.2680 O.2   265  LEU265     -0.2718
     77  CB       115.9460   11.0560    6.7210 C.3   265  LEU265      0.0284
     78  CG       115.6990   10.4020    5.3560 C.3   265  LEU265      0.0019
     79  CD1      116.5430    9.1390    5.2260 C.3   265  LEU265      0.0001
     80  CD2      114.2150   10.0810    5.2060 C.3   265  LEU265      0.0001
     81  N        116.2240   13.9420    8.6460 N.am  266  ASN266     -0.1974
     82  CA       116.4110   14.4400   10.0000 C.3   266  ASN266      0.1688
     83  C        115.6220   15.7420   10.2360 C.2   266  ASN266      0.2292
     84  O        116.0330   16.5830   11.0450 O.2   266  ASN266     -0.2864
     85  CB       117.9020   14.6910   10.2580 C.3   266  ASN266      0.1181
     86  CG       118.3510   14.1980   11.6130 C.2   266  ASN266      0.2629
     87  OD1      119.1980   14.8060   12.2540 O.2   266  ASN266     -0.2716
     88  ND2      117.7970   13.0800   12.0460 N.am  266  ASN266     -0.0877
     89  N        114.3490   16.6550   13.7990 N.3   269  HIS269     -0.1241
     90  CA       115.2390   15.9690   14.7390 C.3   269  HIS269      0.1621
     91  C        116.3270   16.8310   15.3640 C.2   269  HIS269      0.2264
     92  O        116.8860   16.4640   16.3980 O.2   269  HIS269     -0.2867
     93  CB       115.8830   14.7560   14.0690 C.3   269  HIS269      0.0745
     94  CG       114.9490   13.5950   13.9000 C.ar  269  HIS269      0.0817
     95  ND1      113.7540   13.6960   13.2200 N.ar  269  HIS269     -0.2268
     96  CD2      115.0350   12.3170   14.3290 C.ar  269  HIS269      0.1154
     97  CE1      113.1460   12.5240   13.2390 C.ar  269  HIS269      0.1986
     98  NE2      113.8990   11.6690   13.9040 N.ar  269  HIS269     -0.2212
     99  N        115.8290   16.0200   18.8430 N.3   273  HIS273     -0.1241
    100  CA       116.8000   15.2670   19.6310 C.3   273  HIS273      0.1621
    101  C        117.2550   16.0660   20.8410 C.2   273  HIS273      0.2264
    102  O        117.4850   15.4980   21.9070 O.2   273  HIS273     -0.2867
    103  CB       118.0060   14.9030   18.7630 C.3   273  HIS273      0.0745
    104  CG       117.8220   13.6420   17.9800 C.ar  273  HIS273      0.0817
    105  ND1      118.3970   13.4410   16.7440 N.ar  273  HIS273     -0.2268
    106  CD2      117.1500   12.5010   18.2720 C.ar  273  HIS273      0.1154
    107  CE1      118.0870   12.2330   16.3080 C.ar  273  HIS273      0.1986
    108  NE2      117.3310   11.6420   17.2160 N.ar  273  HIS273     -0.2212
    109  N        110.2420    9.1080   21.3340 N.3   285  HIS285     -0.1241
    110  CA       110.9390    9.7600   20.2350 C.3   285  HIS285      0.1621
    111  C        109.9920   10.4570   19.2600 C.2   285  HIS285      0.2264
    112  O        110.2200   11.6050   18.8780 O.2   285  HIS285     -0.2867
    113  CB       111.7960    8.7320   19.4850 C.3   285  HIS285      0.0745
    114  CG       112.5390    9.2990   18.3120 C.ar  285  HIS285      0.0817
    115  ND1      113.3300   10.4260   18.4000 N.ar  285  HIS285     -0.2268
    116  CD2      112.6160    8.8870   17.0240 C.ar  285  HIS285      0.1154
    117  CE1      113.8610   10.6820   17.2160 C.ar  285  HIS285      0.1986
    118  NE2      113.4430    9.7630   16.3640 N.ar  285  HIS285     -0.2212
    119  N        124.7370   15.7040   15.2380 N.3   354  LYS354     -0.1245
    120  CA       125.5770   15.0580   14.2380 C.3   354  LYS354      0.1561
    121  C        125.5010   15.6320   12.8240 C.2   354  LYS354      0.2260
    122  O        125.9900   15.0180   11.8810 O.2   354  LYS354     -0.2867
    123  CB       125.2710   13.5550   14.1950 C.3   354  LYS354      0.0271
    124  CG       125.6030   12.8260   15.4850 C.3   354  LYS354      0.0035
    125  CD       125.3180   11.3360   15.3860 C.3   354  LYS354      0.0206
    126  CE       123.8560   11.0820   15.0270 C.3   354  LYS354      0.1093
    127  NZ       122.9270   11.8210   15.9470 N.3   354  LYS354     -0.1314
@<TRIPOS>BOND
     1    47    46    2
     2    46    45    1
     3    44    45    1
     4    62    63    1
     5    45    48    1
     6    63    66    1
     7    63    64    1
     8    48    49    1
     9    66    67    1
    10    55    54    1
    11    55    56    2
    12    53    54    1
    13    54    57    1
    14    49    50    1
    15    64    65    2
    16    80    78    1
    17    79    78    1
    18    78    77    1
    19    68    67    1
    20    68    69    1
    21    71    70    1
    22    73    74    1
    23    38    37    2
    24    57    58    1
    25    50    51    1
    26    69    70    2
    27    77    74    1
    28    70    72    1
    29    74    75    1
    30    58    59    1
    31    37    36    1
    32    51    52    1
    33    59    61   ar
    34    59    60   ar
    35    75    81   am
    36    75    76    2
    37    36    35    1
    38    36    39    1
    39    81    82    1
    40    29    28    2
    41    42    43    1
    42    42    41    1
    43    40    39    1
    44    40    41    1
    45     7     6   ar
    46     1     2    1
    47     2     3    1
    48     2     5    1
    49     4     3    2
    50     9    10    1
    51    16    17    1
    52    16    15    1
    53    28    27    1
    54    82    83    1
    55    82    85    1
    56    14    15    1
    57    14    13    1
    58    83    84    2
    59    85    86    1
    60     5     6    1
    61     6     8   ar
    62    10    13    1
    63    10    11    1
    64    27    30    1
    65    27    26    1
    66    30    31    1
    67    86    88   am
    68    86    87    2
    69   122   121    2
    70    11    12    2
    71    33    32   ar
    72    32    31    1
    73    32    34   ar
    74   121   120    1
    75    95    97   ar
    76    95    94   ar
    77    97    98   ar
    78    89    90    1
    79    94    93    1
    80    94    96   ar
    81    98    96   ar
    82    93    90    1
    83   123   120    1
    84   123   124    1
    85   120   119    1
    86    90    91    1
    87   126   125    1
    88   126   127    1
    89    91    92    2
    90   125   124    1
    91   107   105   ar
    92   107   108   ar
    93   118   116   ar
    94   118   117   ar
    95   105   104   ar
    96   116   114   ar
    97   117   115   ar
    98   108   106   ar
    99    25    23   am
   100    21    20    2
   101    22    23    1
   102    22    19    1
   103   104   106   ar
   104   104   103    1
   105    23    24    2
   106   114   115   ar
   107   114   113    1
   108   103   100    1
   109    99   100    1
   110    20    19    1
   111   112   111    2
   112    19    18    1
   113   111   110    1
   114   113   110    1
   115   100   101    1
   116   110   109    1
   117   101   102    2
