@<TRIPOS>MOLECULE
tmp/1nvfB00.pdb
 177 170 0 0 0
SMALL
GASTEIGER

@<TRIPOS>ATOM
      1  N         69.8050  -48.4740   14.9870 N.3    41  ASP41      -0.1239
      2  CA        69.2570  -48.3540   13.6390 C.3    41  ASP41       0.1674
      3  C         69.8240  -47.1210   12.9590 C.2    41  ASP41       0.2266
      4  O         70.5420  -46.3300   13.5730 O.2    41  ASP41      -0.2867
      5  CB        67.7180  -48.3080   13.6370 C.3    41  ASP41       0.1410
      6  CG        67.1550  -47.2400   14.5440 C.2    41  ASP41       0.3668
      7  OD1       67.8170  -46.2000   14.7300 O.co2  41  ASP41      -0.2456
      8  OD2       66.0350  -47.4400   15.0560 O.co2  41  ASP41      -0.2456
      9  N         68.4230  -44.3550   12.0070 N.3    43  ASN43      -0.1225
     10  CA        67.9480  -43.0910   12.5700 C.3    43  ASN43       0.1785
     11  C         68.7540  -42.6460   13.7890 C.2    43  ASN43       0.2597
     12  O         69.2320  -41.5150   13.8540 O.2    43  ASN43      -0.2718
     13  CB        66.4600  -43.1970   12.9350 C.3    43  ASN43       0.1169
     14  CG        65.5440  -43.0420   11.7230 C.2    43  ASN43       0.2627
     15  OD1       65.4020  -41.9500   11.1650 O.2    43  ASN43      -0.2716
     16  ND2       64.9190  -44.1410   11.3110 N.am   43  ASN43      -0.0877
     17  N         68.9130  -43.5340   14.7550 N.am   44  ILE44      -0.1980
     18  CA        69.6600  -43.2060   15.9570 C.3    44  ILE44       0.1595
     19  C         71.1590  -43.1440   15.6800 C.2    44  ILE44       0.2287
     20  O         71.8790  -42.3740   16.3130 O.2    44  ILE44      -0.2864
     21  CB        69.4420  -44.2710   17.0340 C.3    44  ILE44       0.0276
     22  CG1       67.9530  -44.5820   17.1630 C.3    44  ILE44       0.0022
     23  CG2       69.9950  -43.7900   18.3570 C.3    44  ILE44       0.0022
     24  CD1       67.6710  -45.8960   17.8700 C.3    44  ILE44       0.0001
     25  N         72.7680  -39.8510   14.1230 N.3    47  ILE47      -0.1231
     26  CA        72.7160  -38.7830   15.1070 C.3    47  ILE47       0.1692
     27  C         73.6380  -38.9920   16.3070 C.2    47  ILE47       0.2592
     28  O         74.2450  -38.0450   16.8050 O.2    47  ILE47      -0.2718
     29  CB        71.2810  -38.6140   15.6660 C.3    47  ILE47       0.0266
     30  CG1       70.2980  -38.1910   14.5750 C.3    47  ILE47       0.0019
     31  CG2       71.2750  -37.6170   16.8080 C.3    47  ILE47       0.0020
     32  CD1       68.9040  -37.9220   15.0080 C.3    47  ILE47       0.0001
     33  N         73.7900  -40.2670   16.7210 N.am   48  TYR48      -0.1976
     34  CA        74.5380  -40.5040   17.9730 C.3    48  TYR48       0.1639
     35  C         75.8070  -41.3710   17.9120 C.2    48  TYR48       0.2290
     36  O         76.6390  -41.2510   18.8030 O.2    48  TYR48      -0.2864
     37  CB        73.5990  -41.1400   18.9850 C.3    48  TYR48       0.0560
     38  CG        72.5480  -40.1840   19.4980 C.ar   48  TYR48      -0.0198
     39  CD1       72.8770  -39.1880   20.4130 C.ar   48  TYR48      -0.0009
     40  CD2       71.2270  -40.2730   19.0740 C.ar   48  TYR48      -0.0009
     41  CE1       71.9160  -38.3000   20.9020 C.ar   48  TYR48       0.0417
     42  CE2       70.2530  -39.3870   19.5540 C.ar   48  TYR48       0.0417
     43  CZ        70.6030  -38.4050   20.4710 C.ar   48  TYR48       0.1957
     44  OH        69.6440  -37.5370   20.9480 O.3    48  TYR48      -0.2866
     45  N         65.2890  -49.2590   11.2130 N.3    76  PRO76      -0.2102
     46  CA        64.4680  -48.8640   12.3550 C.3    76  PRO76       0.1504
     47  C         63.0140  -49.3160   12.1830 C.2    76  PRO76       0.2576
     48  O         62.4950  -49.3440   11.0640 O.2    76  PRO76      -0.2718
     49  CB        64.6240  -47.3450   12.3760 C.3    76  PRO76       0.0282
     50  CG        64.8680  -47.0150   10.9300 C.3    76  PRO76       0.0208
     51  CD        65.8450  -48.0800   10.5340 C.3    76  PRO76       0.0893
     52  N         62.3800  -49.6870   13.2970 N.am   77  GLY77      -0.1943
     53  CA        60.9970  -50.1420   13.2730 C.3    77  GLY77       0.2014
     54  C         60.7500  -51.4380   14.0350 C.2    77  GLY77       0.2638
     55  O         61.6420  -52.2760   14.1670 O.2    77  GLY77      -0.2714
     56  N         59.5300  -51.6040   14.5390 N.am   78  GLU78      -0.1977
     57  CA        59.1450  -52.8070   15.2780 C.3    78  GLU78       0.1602
     58  C         59.1310  -53.9920   14.3040 C.2    78  GLU78       0.2287
     59  O         58.6280  -55.0690   14.6200 O.2    78  GLU78      -0.2864
     60  CB        57.7550  -52.5980   15.8840 C.3    78  GLU78       0.0415
     61  CG        57.2420  -53.7170   16.7910 C.3    78  GLU78       0.1163
     62  CD        57.9090  -53.7580   18.1590 C.2    78  GLU78       0.3649
     63  OE1       58.0240  -52.7040   18.8290 O.co2  78  GLU78      -0.2457
     64  OE2       58.3030  -54.8610   18.5800 O.co2  78  GLU78      -0.2457
     65  N         65.7700  -47.8070   21.2970 N.3   111  GLY111     -0.1210
     66  CA        64.6040  -47.9740   22.1480 C.3   111  GLY111      0.1956
     67  C         64.3230  -49.4260   22.4790 C.2   111  GLY111      0.2612
     68  O         65.2490  -50.2210   22.6130 O.2   111  GLY111     -0.2717
     69  N         63.0430  -49.7670   22.6040 N.am  112  GLY112     -0.1942
     70  CA        62.6540  -51.1270   22.9330 C.3   112  GLY112      0.2014
     71  C         62.9390  -52.1380   21.8380 C.2   112  GLY112      0.2639
     72  O         63.2370  -53.3010   22.1170 O.2   112  GLY112     -0.2714
     73  N         62.8460  -51.7160   20.5850 N.am  113  VAL113     -0.1963
     74  CA        63.1150  -52.6410   19.5000 C.3   113  VAL113      0.1727
     75  C         64.5810  -53.0570   19.5400 C.2   113  VAL113      0.2616
     76  O         64.9120  -54.2340   19.6700 O.2   113  VAL113     -0.2715
     77  CB        62.8130  -52.0110   18.1250 C.3   113  VAL113      0.0290
     78  CG1       63.2820  -52.9460   17.0200 C.3   113  VAL113      0.0023
     79  CG2       61.3180  -51.7570   17.9820 C.3   113  VAL113      0.0023
     80  N         65.4670  -52.0830   19.4360 N.am  114  ILE114     -0.1977
     81  CA        66.8810  -52.3890   19.4510 C.3   114  ILE114      0.1596
     82  C         67.3100  -53.0120   20.7670 C.2   114  ILE114      0.2287
     83  O         68.2130  -53.8460   20.7970 O.2   114  ILE114     -0.2864
     84  CB        67.6980  -51.1240   19.1250 C.3   114  ILE114      0.0276
     85  CG1       67.5880  -50.8740   17.6250 C.3   114  ILE114      0.0022
     86  CG2       69.1430  -51.2510   19.6470 C.3   114  ILE114      0.0022
     87  CD1       68.0710  -49.5360   17.2090 C.3   114  ILE114      0.0001
     88  N         67.4850  -44.9320   24.3180 N.3   136  THR136     -0.1203
     89  CA        67.3840  -43.6150   23.7030 C.3   136  THR136      0.1994
     90  C         65.9450  -43.0740   23.6220 C.2   136  THR136      0.2618
     91  O         65.7400  -41.9670   23.1370 O.2   136  THR136     -0.2717
     92  CB        67.9770  -43.6350   22.2770 C.3   136  THR136      0.1784
     93  OG1       67.2030  -44.5130   21.4450 O.3   136  THR136     -0.2211
     94  CG2       69.4260  -44.1160   22.3050 C.3   136  THR136      0.0376
     95  N         64.9530  -43.8420   24.0800 N.am  137  THR137     -0.1952
     96  CA        63.5520  -43.4030   24.0150 C.3   137  THR137      0.1897
     97  C         63.0350  -43.3160   25.4240 C.2   137  THR137      0.2313
     98  O         63.7000  -43.7560   26.3620 O.2   137  THR137     -0.2863
     99  CB        62.6200  -44.4090   23.2570 C.3   137  THR137      0.1794
    100  OG1       62.5020  -45.6110   24.0280 O.3   137  THR137     -0.2208
    101  CG2       63.1570  -44.7420   21.8690 C.3   137  THR137      0.0378
    102  N         60.1840  -44.7790   26.5580 N.3   139  LEU139     -0.1245
    103  CA        59.6940  -46.1060   26.9010 C.3   139  LEU139      0.1561
    104  C         60.8170  -47.0350   27.3260 C.2   139  LEU139      0.2260
    105  O         60.6630  -47.8290   28.2430 O.2   139  LEU139     -0.2867
    106  CB        58.9490  -46.7080   25.7050 C.3   139  LEU139      0.0270
    107  CG        58.2530  -48.0600   25.8780 C.3   139  LEU139      0.0019
    108  CD1       57.2370  -48.2150   24.7610 C.3   139  LEU139      0.0001
    109  CD2       59.2670  -49.2070   25.8600 C.3   139  LEU139      0.0001
    110  N         69.1230  -37.8640   25.3760 N.3   176  PHE176     -0.1241
    111  CA        68.5940  -38.4680   24.1530 C.3   176  PHE176      0.1605
    112  C         67.1980  -37.9580   23.8300 C.2   176  PHE176      0.2264
    113  O         66.8260  -37.8190   22.6610 O.2   176  PHE176     -0.2867
    114  CB        68.5470  -39.9960   24.2900 C.3   176  PHE176      0.0534
    115  CG        69.8960  -40.6740   24.1830 C.ar  176  PHE176     -0.0203
    116  CD1       70.6440  -40.5820   23.0160 C.ar  176  PHE176     -0.0042
    117  CD2       70.3950  -41.4370   25.2420 C.ar  176  PHE176     -0.0042
    118  CE1       71.8600  -41.2380   22.8990 C.ar  176  PHE176     -0.0003
    119  CE2       71.6170  -42.0980   25.1300 C.ar  176  PHE176     -0.0003
    120  CZ        72.3500  -41.9970   23.9570 C.ar  176  PHE176     -0.0000
    121  N         66.0970  -35.3550   21.0050 N.3   179  THR179     -0.1203
    122  CA        65.7740  -35.6280   19.6120 C.3   179  THR179      0.1994
    123  C         64.6800  -36.6560   19.3720 C.2   179  THR179      0.2618
    124  O         64.3490  -36.9580   18.2230 O.2   179  THR179     -0.2717
    125  CB        67.0250  -36.0720   18.8600 C.3   179  THR179      0.1784
    126  OG1       67.5670  -37.2250   19.5020 O.3   179  THR179     -0.2211
    127  CG2       68.0660  -34.9730   18.8770 C.3   179  THR179      0.0376
    128  N         64.1110  -37.1910   20.4440 N.am  180  LEU180     -0.1966
    129  CA        63.0490  -38.1890   20.3170 C.3   180  LEU180      0.1713
    130  C         61.7720  -37.5560   19.7550 C.2   180  LEU180      0.2458
    131  O         61.2920  -36.5540   20.2800 O.2   180  LEU180     -0.2730
    132  CB        62.7560  -38.8110   21.6920 C.3   180  LEU180      0.0310
    133  CG        61.7700  -39.9870   21.7860 C.3   180  LEU180      0.0022
    134  CD1       62.3950  -41.2450   21.1720 C.3   180  LEU180      0.0001
    135  CD2       61.3810  -40.2180   23.2560 C.3   180  LEU180      0.0001
    136  N         61.2090  -38.1320   18.6750 N.am  181  PRO181     -0.2727
    137  CA        59.9830  -37.6060   18.0650 C.3   181  PRO181      0.1402
    138  C         58.8540  -37.4850   19.0870 C.2   181  PRO181      0.2269
    139  O         58.7990  -38.2370   20.0610 O.2   181  PRO181     -0.2865
    140  CB        59.6680  -38.6340   16.9810 C.3   181  PRO181      0.0296
    141  CG        61.0130  -39.0920   16.5610 C.3   181  PRO181      0.0237
    142  CD        61.7270  -39.2640   17.8900 C.3   181  PRO181      0.0939
    143  N         56.7280  -40.6520   19.9310 N.3   184  GLU184     -0.1245
    144  CA        57.4810  -41.5840   20.7680 C.3   184  GLU184      0.1567
    145  C         57.4220  -41.2170   22.2360 C.2   184  GLU184      0.2260
    146  O         57.1820  -42.0680   23.0860 O.2   184  GLU184     -0.2867
    147  CB        58.9460  -41.6370   20.3290 C.3   184  GLU184      0.0388
    148  CG        59.1740  -42.4140   19.0410 C.3   184  GLU184      0.1160
    149  CD        58.4380  -43.7500   19.0190 C.2   184  GLU184      0.3649
    150  OE1       58.3420  -44.4020   20.0850 O.co2 184  GLU184     -0.2457
    151  OE2       57.9690  -44.1560   17.9290 O.co2 184  GLU184     -0.2457
    152  N         54.0430  -41.9660   23.5900 N.3   187  ASN187     -0.1240
    153  CA        53.9880  -43.4240   23.5840 C.3   187  ASN187      0.1653
    154  C         54.5990  -44.0190   24.8520 C.2   187  ASN187      0.2266
    155  O         54.0360  -44.9340   25.4490 O.2   187  ASN187     -0.2867
    156  CB        54.7290  -43.9530   22.3520 C.3   187  ASN187      0.1155
    157  CG        54.6150  -45.4500   22.2000 C.2   187  ASN187      0.2627
    158  OD1       53.5150  -45.9930   22.1690 O.2   187  ASN187     -0.2716
    159  ND2       55.7550  -46.1280   22.0960 N.am  187  ASN187     -0.0877
    160  N         51.6910  -48.0000   17.8970 N.3   283  LEU283     -0.1231
    161  CA        52.8230  -48.2540   18.7680 C.3   283  LEU283      0.1693
    162  C         52.4550  -48.9940   20.0360 C.2   283  LEU283      0.2592
    163  O         51.2880  -49.0630   20.4260 O.2   283  LEU283     -0.2718
    164  CB        53.5350  -46.9390   19.1090 C.3   283  LEU283      0.0284
    165  CG        53.9740  -46.0650   17.9200 C.3   283  LEU283      0.0019
    166  CD1       54.6440  -44.7890   18.4300 C.3   283  LEU283      0.0001
    167  CD2       54.9200  -46.8280   17.0210 C.3   283  LEU283      0.0001
    168  N         53.4730  -49.5690   20.6630 N.am  284  HIS284     -0.1976
    169  CA        53.2840  -50.3340   21.8820 C.3   284  HIS284      0.1656
    170  C         52.5380  -49.5410   22.9210 C.2   284  HIS284      0.2291
    171  O         51.4300  -49.8880   23.3030 O.2   284  HIS284     -0.2864
    172  CB        54.6310  -50.7750   22.4520 C.3   284  HIS284      0.0771
    173  CG        54.5120  -51.6330   23.6730 C.ar  284  HIS284      0.0820
    174  ND1       53.8050  -52.8170   23.6900 N.ar  284  HIS284     -0.2267
    175  CD2       55.0340  -51.4950   24.9140 C.ar  284  HIS284      0.1154
    176  CE1       53.9020  -53.3730   24.8820 C.ar  284  HIS284      0.1986
    177  NE2       54.6440  -52.5900   25.6420 N.ar  284  HIS284     -0.2212
@<TRIPOS>BOND
     1    51    50    1
     2    51    45    1
     3    50    49    1
     4    48    47    2
     5    15    14    2
     6    45    46    1
     7    16    14   am
     8    14    13    1
     9     9    10    1
    10    47    46    1
    11    47    52   am
    12    46    49    1
    13    10    13    1
    14    10    11    1
    15     3     4    2
    16     3     2    1
    17    53    52    1
    18    53    54    1
    19     5     2    1
    20     5     6    1
    21     2     1    1
    22    11    12    2
    23    11    17   am
    24    54    55    2
    25    54    56   am
    26    25    26    1
    27    58    59    2
    28    58    57    1
    29    56    57    1
    30     6     7   ar
    31     6     8   ar
    32    30    32    1
    33    30    29    1
    34    17    18    1
    35    26    29    1
    36    26    27    1
    37    57    60    1
    38    29    31    1
    39    19    18    1
    40    19    20    2
    41    60    61    1
    42    18    21    1
    43    27    33   am
    44    27    28    2
    45   141   140    1
    46   141   142    1
    47    33    34    1
    48    61    62    1
    49   140   137    1
    50    78    77    1
    51   167   165    1
    52    21    22    1
    53    21    23    1
    54    22    24    1
    55    87    85    1
    56    85    84    1
    57   142   136    1
    58   160   161    1
    59    35    34    1
    60    35    36    2
    61   165   166    1
    62   165   164    1
    63   151   149   ar
    64    34    37    1
    65    79    77    1
    66   137   136    1
    67   137   138    1
    68    77    74    1
    69    62    64   ar
    70    62    63   ar
    71   124   123    2
    72   136   130   am
    73   161   164    1
    74   161   162    1
    75   125   127    1
    76   125   126    1
    77   125   122    1
    78    37    38    1
    79   149   148    1
    80   149   150   ar
    81   148   147    1
    82    40    38   ar
    83    40    42   ar
    84   138   139    2
    85    84    81    1
    86    84    86    1
    87   123   122    1
    88   123   128   am
    89    80    81    1
    90    80    75   am
    91    81    82    1
    92    38    39   ar
    93    74    75    1
    94    74    73    1
    95    75    76    2
    96    42    43   ar
    97   122   121    1
    98   130   131    2
    99   130   129    1
   100   143   144    1
   101   162   163    2
   102   162   168   am
   103   129   128    1
   104   129   132    1
   105   147   144    1
   106    39    41   ar
   107    43    41   ar
   108    43    44    1
   109    73    71   am
   110   168   169    1
   111    82    83    2
   112   144   145    1
   113   134   133    1
   114    65    66    1
   115    93    92    1
   116   132   133    1
   117   133   135    1
   118    71    72    2
   119    71    70    1
   120   101    99    1
   121   169   172    1
   122   169   170    1
   123   159   157   am
   124    66    67    1
   125   158   157    2
   126   157   156    1
   127   145   146    2
   128    92    94    1
   129    92    89    1
   130   156   153    1
   131   172   173    1
   132    67    69   am
   133    67    68    2
   134    69    70    1
   135   113   112    2
   136   118   116   ar
   137   118   120   ar
   138   170   171    2
   139   116   115   ar
   140    91    90    2
   141    99    96    1
   142    99   100    1
   143   153   152    1
   144   153   154    1
   145    90    89    1
   146    90    95   am
   147   173   174   ar
   148   173   175   ar
   149   174   176   ar
   150    89    88    1
   151   112   111    1
   152   120   119   ar
   153    96    95    1
   154    96    97    1
   155   111   114    1
   156   111   110    1
   157   115   114    1
   158   115   117   ar
   159   108   107    1
   160   154   155    2
   161   176   177   ar
   162   175   177   ar
   163   119   117   ar
   164    97    98    2
   165   106   107    1
   166   106   103    1
   167   109   107    1
   168   102   103    1
   169   103   104    1
   170   104   105    2
