@<TRIPOS>MOLECULE
tmp/1nvlA01.pdb
 137 132 0 0 0
SMALL
GASTEIGER

@<TRIPOS>ATOM
      1  N         16.3660    1.3600    0.4990 N.3    12  VAL12      -0.1231
      2  CA        17.4950    0.7180   -0.2440 C.3    12  VAL12       0.1692
      3  C         18.6290    1.7280   -0.3190 C.2    12  VAL12       0.2591
      4  O         19.7490    1.4090    0.0030 O.2    12  VAL12      -0.2718
      5  CB        16.9390    0.2970   -1.6490 C.3    12  VAL12       0.0266
      6  CG1       17.2010    1.3200   -2.7790 C.3    12  VAL12       0.0020
      7  CG2       17.5800   -1.0020   -2.1010 C.3    12  VAL12       0.0020
      8  N         18.3750    2.9450   -0.7220 N.am   13  LYS13      -0.1980
      9  CA        19.4780    3.9250   -0.7890 C.3    13  LYS13       0.1596
     10  C         20.1840    4.0820    0.5880 C.2    13  LYS13       0.2287
     11  O         21.2650    4.6260    0.6630 O.2    13  LYS13      -0.2864
     12  CB        18.8660    5.2170   -1.2620 C.3    13  LYS13       0.0298
     13  CG        18.4470    5.1070   -2.7500 C.3    13  LYS13       0.0038
     14  CD        18.9070    6.4050   -3.4470 C.3    13  LYS13       0.0206
     15  CE        18.2840    7.6450   -2.7750 C.3    13  LYS13       0.1093
     16  NZ        19.0620    8.7990   -3.2740 N.3    13  LYS13      -0.1314
     17  N         21.0260    1.4710    2.4640 N.3    15  LEU15      -0.1245
     18  CA        21.8710    0.2470    2.6390 C.3    15  LEU15       0.1561
     19  C         23.3170    0.6310    3.0550 C.2    15  LEU15       0.2260
     20  O         24.0210    1.2290    2.2660 O.2    15  LEU15      -0.2867
     21  CB        21.8760   -0.4870    1.3010 C.3    15  LEU15       0.0270
     22  CG        20.5840   -1.2520    1.0580 C.3    15  LEU15       0.0019
     23  CD1       20.4790   -1.5230   -0.4310 C.3    15  LEU15       0.0001
     24  CD2       20.7410   -2.6230    1.6910 C.3    15  LEU15       0.0001
     25  N         25.9110   -0.2940    2.5680 N.3    17  THR17      -0.1203
     26  CA        26.8040   -0.7290    1.4710 C.3    17  THR17       0.1994
     27  C         25.9810   -0.6810    0.1800 C.2    17  THR17       0.2618
     28  O         24.7700   -0.7400    0.2180 O.2    17  THR17      -0.2717
     29  CB        27.2670   -2.1430    1.7990 C.3    17  THR17       0.1784
     30  OG1       28.2010   -1.9500    2.8510 O.3    17  THR17      -0.2211
     31  CG2       28.1180   -2.8120    0.7270 C.3    17  THR17       0.0376
     32  N         26.6910   -0.5800   -0.9010 N.am   18  LYS18      -0.1966
     33  CA        26.1340   -0.5310   -2.2710 C.3    18  LYS18       0.1713
     34  C         26.2350   -2.0540   -2.6120 C.2    18  LYS18       0.2458
     35  O         27.3330   -2.5330   -2.8390 O.2    18  LYS18      -0.2730
     36  CB        27.0840    0.3860   -3.1230 C.3    18  LYS18       0.0311
     37  CG        28.0550    1.2700   -2.2340 C.3    18  LYS18       0.0038
     38  CD        29.3640    0.4410   -1.9290 C.3    18  LYS18       0.0206
     39  CE        30.1950    1.0390   -0.7690 C.3    18  LYS18       0.1093
     40  NZ        31.3780    0.1380   -0.5350 N.3    18  LYS18      -0.1314
     41  N         25.1280   -2.7730   -2.6190 N.am   19  PRO19      -0.2727
     42  CA        25.1360   -4.2380   -2.9290 C.3    19  PRO19       0.1402
     43  C         25.9630   -4.7240   -4.1300 C.2    19  PRO19       0.2269
     44  O         26.5260   -3.9660   -4.8940 O.2    19  PRO19      -0.2865
     45  CB        23.6390   -4.5740   -3.0570 C.3    19  PRO19       0.0296
     46  CG        23.0060   -3.6160   -2.0280 C.3    19  PRO19       0.0237
     47  CD        23.7380   -2.2890   -2.3350 C.3    19  PRO19       0.0939
     48  N         26.6840   -6.3030   -7.8180 N.3    21  ASP21      -0.1239
     49  CA        26.0150   -5.9600   -9.1120 C.3    21  ASP21       0.1674
     50  C         24.6990   -6.7010   -9.2820 C.2    21  ASP21       0.2266
     51  O         23.6840   -6.0530   -9.2900 O.2    21  ASP21      -0.2867
     52  CB        26.9640   -6.3020  -10.3020 C.3    21  ASP21       0.1410
     53  CG        28.3710   -6.4890   -9.7810 C.2    21  ASP21       0.3668
     54  OD1       28.6060   -7.5860   -9.3010 O.co2  21  ASP21      -0.2456
     55  OD2       29.1070   -5.5290   -9.8730 O.co2  21  ASP21      -0.2456
     56  N         22.1960   -5.2540   -7.2300 N.3    24  MET24      -0.1230
     57  CA        22.0080   -3.8440   -7.7080 C.3    24  MET24       0.1702
     58  C         21.1290   -3.9560   -8.9900 C.2    24  MET24       0.2592
     59  O         20.0370   -3.4440   -9.0240 O.2    24  MET24      -0.2718
     60  CB        23.4140   -3.2660   -7.9840 C.3    24  MET24       0.0401
     61  CG        24.1080   -2.8520   -6.6760 C.3    24  MET24       0.0596
     62  SD        25.6780   -1.9670   -6.8380 S.3    24  MET24      -0.1393
     63  CE        25.0180   -0.2920   -6.6890 C.3    24  MET24       0.0692
     64  N         21.6340   -4.6140  -10.0000 N.am   25  LEU25      -0.1980
     65  CA        20.9830   -4.8660  -11.3110 C.3    25  LEU25       0.1596
     66  C         19.4690   -5.1230  -11.1140 C.2    25  LEU25       0.2287
     67  O         18.6320   -4.5250  -11.7730 O.2    25  LEU25      -0.2864
     68  CB        21.8050   -6.0600  -11.8840 C.3    25  LEU25       0.0297
     69  CG        23.2160   -5.6130  -12.3390 C.3    25  LEU25       0.0022
     70  CD1       24.0270   -6.7890  -12.8690 C.3    25  LEU25       0.0001
     71  CD2       23.1200   -4.5820  -13.4950 C.3    25  LEU25       0.0001
     72  N         17.5030   -4.4370   -8.4060 N.3    27  ILE27      -0.1231
     73  CA        16.8960   -3.1500   -7.9040 C.3    27  ILE27       0.1692
     74  C         16.8330   -2.1180   -9.0480 C.2    27  ILE27       0.2592
     75  O         15.8050   -1.5210   -9.2750 O.2    27  ILE27      -0.2718
     76  CB        17.7670   -2.7030   -6.6910 C.3    27  ILE27       0.0266
     77  CG1       17.2990   -3.4500   -5.4040 C.3    27  ILE27       0.0019
     78  CG2       17.7390   -1.2030   -6.4200 C.3    27  ILE27       0.0020
     79  CD1       15.8730   -3.0470   -4.9190 C.3    27  ILE27       0.0001
     80  N         17.9160   -1.9120   -9.7410 N.am   28  TYR28      -0.1976
     81  CA        17.9420   -0.9470  -10.8770 C.3    28  TYR28       0.1639
     82  C         16.8360   -1.2660  -11.9050 C.2    28  TYR28       0.2290
     83  O         15.9190   -0.4910  -12.0560 O.2    28  TYR28      -0.2864
     84  CB        19.3240   -1.0310  -11.5400 C.3    28  TYR28       0.0560
     85  CG        19.4270   -0.0620  -12.7310 C.ar   28  TYR28      -0.0198
     86  CD1       18.7290   -0.2470  -13.9170 C.ar   28  TYR28      -0.0009
     87  CD2       20.2420    1.0350  -12.6240 C.ar   28  TYR28      -0.0009
     88  CE1       18.8590    0.6500  -14.9520 C.ar   28  TYR28       0.0417
     89  CE2       20.3610    1.9180  -13.6670 C.ar   28  TYR28       0.0417
     90  CZ        19.6720    1.7360  -14.8440 C.ar   28  TYR28       0.1957
     91  OH        19.8000    2.6100  -15.9080 O.3    28  TYR28      -0.2866
     92  N         13.3950   -0.9330  -10.3490 N.3    31  TYR31      -0.1241
     93  CA        13.0740    0.5000  -10.1060 C.3    31  TYR31       0.1605
     94  C         12.8110    1.2510  -11.4320 C.2    31  TYR31       0.2264
     95  O         11.8580    1.9920  -11.5800 O.2    31  TYR31      -0.2867
     96  CB        14.2560    1.0370   -9.3570 C.3    31  TYR31       0.0534
     97  CG        14.0510    2.5020   -9.0240 C.ar   31  TYR31      -0.0201
     98  CD1       13.2430    2.8970   -7.9780 C.ar   31  TYR31      -0.0009
     99  CD2       14.6890    3.4410   -9.7880 C.ar   31  TYR31      -0.0009
    100  CE1       13.0770    4.2390   -7.7090 C.ar   31  TYR31       0.0417
    101  CE2       14.5200    4.7780   -9.5160 C.ar   31  TYR31       0.0417
    102  CZ        13.7180    5.1780   -8.4770 C.ar   31  TYR31       0.1957
    103  OH        13.5640    6.5190   -8.2110 O.3    31  TYR31      -0.2866
    104  N         29.9370   -2.6040  -16.6980 N.3    49  PHE49      -0.1227
    105  CA        29.3480   -2.9350  -15.3760 C.3    49  PHE49       0.1736
    106  C         28.2670   -1.9320  -14.9720 C.2    49  PHE49       0.2595
    107  O         27.1670   -2.2890  -14.6210 O.2    49  PHE49      -0.2718
    108  CB        30.5140   -2.9800  -14.3300 C.3    49  PHE49       0.0547
    109  CG        30.9510   -1.5660  -13.9230 C.ar   49  PHE49      -0.0202
    110  CD1       31.5810   -0.6980  -14.8020 C.ar   49  PHE49      -0.0042
    111  CD2       30.6810   -1.1370  -12.6430 C.ar   49  PHE49      -0.0042
    112  CE1       31.9330    0.5770  -14.4040 C.ar   49  PHE49      -0.0003
    113  CE2       31.0270    0.1310  -12.2400 C.ar   49  PHE49      -0.0003
    114  CZ        31.6550    0.9930  -13.1170 C.ar   49  PHE49      -0.0000
    115  N         28.6110   -0.6820  -15.0370 N.am   50  LYS50      -0.1980
    116  CA        27.6460    0.4000  -14.6600 C.3    50  LYS50       0.1596
    117  C         26.8970    1.0810  -15.8020 C.2    50  LYS50       0.2287
    118  O         26.0380    1.8890  -15.5350 O.2    50  LYS50      -0.2864
    119  CB        28.4580    1.4010  -13.8020 C.3    50  LYS50       0.0298
    120  CG        27.5640    2.5040  -13.1720 C.3    50  LYS50       0.0038
    121  CD        28.1790    3.0010  -11.8110 C.3    50  LYS50       0.0206
    122  CE        27.4640    4.2910  -11.3480 C.3    50  LYS50       0.1093
    123  NZ        27.5800    4.4520   -9.8590 N.3    50  LYS50      -0.1314
    124  N         25.3410   -3.1530  -18.2440 N.3    53  ALA53      -0.1231
    125  CA        24.6010   -4.0790  -17.3280 C.3    53  ALA53       0.1694
    126  C         23.2730   -3.4770  -16.8280 C.2    53  ALA53       0.2591
    127  O         22.2400   -4.0960  -16.9780 O.2    53  ALA53      -0.2718
    128  CB        25.4870   -4.4390  -16.1070 C.3    53  ALA53       0.0304
    129  N         23.3390   -2.2860  -16.2760 N.am   54  LYS54      -0.1980
    130  CA        22.1070   -1.6390  -15.7670 C.3    54  LYS54       0.1596
    131  C         21.1920   -1.1280  -16.8990 C.2    54  LYS54       0.2287
    132  O         20.0950   -0.6900  -16.6510 O.2    54  LYS54      -0.2864
    133  CB        22.5650   -0.5060  -14.8650 C.3    54  LYS54       0.0298
    134  CG        22.9620    0.7540  -15.7020 C.3    54  LYS54       0.0038
    135  CD        23.4350    1.7630  -14.6760 C.3    54  LYS54       0.0206
    136  CE        23.7460    3.2010  -15.2630 C.3    54  LYS54       0.1093
    137  NZ        22.5310    3.9760  -15.6620 N.3    54  LYS54      -0.1314
@<TRIPOS>BOND
     1   124   125    1
     2   125   126    1
     3   125   128    1
     4   127   126    2
     5   131   132    2
     6   131   130    1
     7   126   129   am
     8   104   105    1
     9   129   130    1
    10    91    90    1
    11   117   118    2
    12   117   116    1
    13   130   133    1
    14   134   133    1
    15   134   135    1
    16   137   136    1
    17   105   106    1
    18   105   108    1
    19   136   135    1
    20   115   106   am
    21   115   116    1
    22   106   107    2
    23    88    90   ar
    24    88    86   ar
    25    90    89   ar
    26   110   112   ar
    27   110   109   ar
    28   116   119    1
    29   112   114   ar
    30   108   109    1
    31   109   111   ar
    32    86    85   ar
    33   119   120    1
    34    89    87   ar
    35    71    69    1
    36   120   121    1
    37   114   113   ar
    38    70    69    1
    39    85    87   ar
    40    85    84    1
    41   111   113   ar
    42    69    68    1
    43    83    82    2
    44    82    81    1
    45    68    65    1
    46   121   122    1
    47    67    66    2
    48    95    94    2
    49    84    81    1
    50    94    93    1
    51   122   123    1
    52    65    66    1
    53    65    64    1
    54    81    80    1
    55    92    93    1
    56    52    53    1
    57    52    49    1
    58    93    96    1
    59    64    58   am
    60    55    53   ar
    61    99   101   ar
    62    99    97   ar
    63    53    54   ar
    64    80    74   am
    65   101   102   ar
    66    96    97    1
    67    51    50    2
    68    50    49    1
    69    75    74    2
    70    49    48    1
    71    74    73    1
    72    59    58    2
    73    97    98   ar
    74    58    57    1
    75   102   103    1
    76   102   100   ar
    77    72    73    1
    78    60    57    1
    79    60    61    1
    80    98   100   ar
    81    73    76    1
    82    57    56    1
    83    62    63    1
    84    62    61    1
    85    76    78    1
    86    76    77    1
    87    77    79    1
    88    44    43    2
    89    43    42    1
    90    14    15    1
    91    14    13    1
    92    16    15    1
    93    36    33    1
    94    36    37    1
    95    45    42    1
    96    45    46    1
    97    42    41    1
    98    35    34    2
    99     6     5    1
   100    13    12    1
   101    41    34   am
   102    41    47    1
   103    34    33    1
   104    47    46    1
   105    33    32    1
   106    37    38    1
   107     7     5    1
   108    38    39    1
   109     5     2    1
   110    12     9    1
   111    32    27   am
   112     9     8    1
   113     9    10    1
   114    39    40    1
   115     8     3   am
   116    23    22    1
   117     3     2    1
   118     3     4    2
   119     2     1    1
   120    27    28    2
   121    27    26    1
   122    10    11    2
   123    31    29    1
   124    22    21    1
   125    22    24    1
   126    21    18    1
   127    26    29    1
   128    26    25    1
   129    29    30    1
   130    20    19    2
   131    17    18    1
   132    18    19    1
