@<TRIPOS>MOLECULE
tmp/1nvlA00.pdb
 150 147 0 0 0
SMALL
GASTEIGER

@<TRIPOS>ATOM
      1  N         12.5530    2.5680   -2.1230 N.3     9  ALA9       -0.1245
      2  CA        13.6290    3.3730   -2.8010 C.3     9  ALA9        0.1562
      3  C         14.4680    4.1210   -1.7390 C.2     9  ALA9        0.2260
      4  O         15.6850    4.0540   -1.7770 O.2     9  ALA9       -0.2867
      5  CB        12.9610    4.3680   -3.7730 C.3     9  ALA9        0.0290
      6  N         16.3660    1.3600    0.4990 N.3    12  VAL12      -0.1231
      7  CA        17.4950    0.7180   -0.2440 C.3    12  VAL12       0.1692
      8  C         18.6290    1.7280   -0.3190 C.2    12  VAL12       0.2592
      9  O         19.7490    1.4090    0.0030 O.2    12  VAL12      -0.2718
     10  CB        16.9390    0.2970   -1.6490 C.3    12  VAL12       0.0266
     11  CG1       17.2010    1.3200   -2.7790 C.3    12  VAL12       0.0020
     12  CG2       17.5800   -1.0020   -2.1010 C.3    12  VAL12       0.0020
     13  N         18.3750    2.9450   -0.7220 N.am   13  LYS13      -0.1966
     14  CA        19.4780    3.9250   -0.7890 C.3    13  LYS13       0.1728
     15  C         20.1840    4.0820    0.5880 C.2    13  LYS13       0.2616
     16  O         21.2650    4.6260    0.6630 O.2    13  LYS13      -0.2715
     17  CB        18.8660    5.2170   -1.2620 C.3    13  LYS13       0.0311
     18  CG        18.4470    5.1070   -2.7500 C.3    13  LYS13       0.0038
     19  CD        18.9070    6.4050   -3.4470 C.3    13  LYS13       0.0206
     20  CE        18.2840    7.6450   -2.7750 C.3    13  LYS13       0.1093
     21  NZ        19.0620    8.7990   -3.2740 N.3    13  LYS13      -0.1314
     22  N         19.5520    3.6080    1.6290 N.am   14  HIS14      -0.1959
     23  CA        20.1640    3.7010    3.0050 C.3    14  HIS14       0.1787
     24  C         21.0750    2.4730    3.3020 C.2    14  HIS14       0.2620
     25  O         21.7910    2.4450    4.2850 O.2    14  HIS14      -0.2715
     26  CB        19.0310    3.8100    4.0900 C.3    14  HIS14       0.0785
     27  CG        18.3750    5.1950    4.0600 C.ar   14  HIS14       0.0821
     28  ND1       17.4640    5.6060    3.2400 N.ar   14  HIS14      -0.2267
     29  CD2       18.6050    6.2850    4.8770 C.ar   14  HIS14       0.1154
     30  CE1       17.1510    6.8380    3.5110 C.ar   14  HIS14       0.1986
     31  NE2       17.8400    7.2980    4.5240 N.ar   14  HIS14      -0.2212
     32  N         21.0260    1.4710    2.4640 N.am   15  LEU15      -0.1963
     33  CA        21.8710    0.2470    2.6390 C.3    15  LEU15       0.1728
     34  C         23.3170    0.6310    3.0550 C.2    15  LEU15       0.2616
     35  O         24.0210    1.2290    2.2660 O.2    15  LEU15      -0.2715
     36  CB        21.8760   -0.4870    1.3010 C.3    15  LEU15       0.0311
     37  CG        20.5840   -1.2520    1.0580 C.3    15  LEU15       0.0022
     38  CD1       20.4790   -1.5230   -0.4310 C.3    15  LEU15       0.0001
     39  CD2       20.7410   -2.6230    1.6910 C.3    15  LEU15       0.0001
     40  N         23.7660    0.3260    4.2460 N.am   16  LYS16      -0.1963
     41  CA        25.1780    0.6830    4.6660 C.3    16  LYS16       0.1728
     42  C         26.3030    0.3090    3.6450 C.2    16  LYS16       0.2617
     43  O         27.4800    0.5470    3.8340 O.2    16  LYS16      -0.2715
     44  CB        25.4030   -0.0050    6.0310 C.3    16  LYS16       0.0311
     45  CG        25.3550   -1.5440    5.8630 C.3    16  LYS16       0.0038
     46  CD        25.2920   -2.2370    7.2570 C.3    16  LYS16       0.0206
     47  CE        26.4280   -1.7940    8.1870 C.3    16  LYS16       0.1093
     48  NZ        27.7310   -2.0670    7.4990 N.3    16  LYS16      -0.1314
     49  N         25.9110   -0.2940    2.5680 N.am   17  THR17      -0.1937
     50  CA        26.8040   -0.7290    1.4710 C.3    17  THR17       0.2028
     51  C         25.9810   -0.6810    0.1800 C.2    17  THR17       0.2642
     52  O         24.7700   -0.7400    0.2180 O.2    17  THR17      -0.2714
     53  CB        27.2670   -2.1430    1.7990 C.3    17  THR17       0.1808
     54  OG1       28.2010   -1.9500    2.8510 O.3    17  THR17      -0.2208
     55  CG2       28.1180   -2.8120    0.7270 C.3    17  THR17       0.0379
     56  N         26.6910   -0.5800   -0.9010 N.am   18  LYS18      -0.1963
     57  CA        26.1340   -0.5310   -2.2710 C.3    18  LYS18       0.1713
     58  C         26.2350   -2.0540   -2.6120 C.2    18  LYS18       0.2458
     59  O         27.3330   -2.5330   -2.8390 O.2    18  LYS18      -0.2730
     60  CB        27.0840    0.3860   -3.1230 C.3    18  LYS18       0.0311
     61  CG        28.0550    1.2700   -2.2340 C.3    18  LYS18       0.0038
     62  CD        29.3640    0.4410   -1.9290 C.3    18  LYS18       0.0206
     63  CE        30.1950    1.0390   -0.7690 C.3    18  LYS18       0.1093
     64  NZ        31.3780    0.1380   -0.5350 N.3    18  LYS18      -0.1314
     65  N         25.1280   -2.7730   -2.6190 N.am   19  PRO19      -0.2727
     66  CA        25.1360   -4.2380   -2.9290 C.3    19  PRO19       0.1402
     67  C         25.9630   -4.7240   -4.1300 C.2    19  PRO19       0.2269
     68  O         26.5260   -3.9660   -4.8940 O.2    19  PRO19      -0.2865
     69  CB        23.6390   -4.5740   -3.0570 C.3    19  PRO19       0.0296
     70  CG        23.0060   -3.6160   -2.0280 C.3    19  PRO19       0.0237
     71  CD        23.7380   -2.2890   -2.3350 C.3    19  PRO19       0.0939
     72  N         22.1960   -5.2540   -7.2300 N.3    24  MET24      -0.1245
     73  CA        22.0080   -3.8440   -7.7080 C.3    24  MET24       0.1570
     74  C         21.1290   -3.9560   -8.9900 C.2    24  MET24       0.2261
     75  O         20.0370   -3.4440   -9.0240 O.2    24  MET24      -0.2867
     76  CB        23.4140   -3.2660   -7.9840 C.3    24  MET24       0.0387
     77  CG        24.1080   -2.8520   -6.6760 C.3    24  MET24       0.0595
     78  SD        25.6780   -1.9670   -6.8380 S.3    24  MET24      -0.1393
     79  CE        25.0180   -0.2920   -6.6890 C.3    24  MET24       0.0692
     80  N         17.5030   -4.4370   -8.4060 N.3    27  ILE27      -0.1231
     81  CA        16.8960   -3.1500   -7.9040 C.3    27  ILE27       0.1692
     82  C         16.8330   -2.1180   -9.0480 C.2    27  ILE27       0.2592
     83  O         15.8050   -1.5210   -9.2750 O.2    27  ILE27      -0.2718
     84  CB        17.7670   -2.7030   -6.6910 C.3    27  ILE27       0.0266
     85  CG1       17.2990   -3.4500   -5.4040 C.3    27  ILE27       0.0019
     86  CG2       17.7390   -1.2030   -6.4200 C.3    27  ILE27       0.0020
     87  CD1       15.8730   -3.0470   -4.9190 C.3    27  ILE27       0.0001
     88  N         17.9160   -1.9120   -9.7410 N.am   28  TYR28      -0.1976
     89  CA        17.9420   -0.9470  -10.8770 C.3    28  TYR28       0.1639
     90  C         16.8360   -1.2660  -11.9050 C.2    28  TYR28       0.2290
     91  O         15.9190   -0.4910  -12.0560 O.2    28  TYR28      -0.2864
     92  CB        19.3240   -1.0310  -11.5400 C.3    28  TYR28       0.0560
     93  CG        19.4270   -0.0620  -12.7310 C.ar   28  TYR28      -0.0198
     94  CD1       18.7290   -0.2470  -13.9170 C.ar   28  TYR28      -0.0009
     95  CD2       20.2420    1.0350  -12.6240 C.ar   28  TYR28      -0.0009
     96  CE1       18.8590    0.6500  -14.9520 C.ar   28  TYR28       0.0417
     97  CE2       20.3610    1.9180  -13.6670 C.ar   28  TYR28       0.0417
     98  CZ        19.6720    1.7360  -14.8440 C.ar   28  TYR28       0.1957
     99  OH        19.8000    2.6100  -15.9080 O.3    28  TYR28      -0.2866
    100  N         13.3950   -0.9330  -10.3490 N.3    31  TYR31      -0.1227
    101  CA        13.0740    0.5000  -10.1060 C.3    31  TYR31       0.1736
    102  C         12.8110    1.2510  -11.4320 C.2    31  TYR31       0.2595
    103  O         11.8580    1.9920  -11.5800 O.2    31  TYR31      -0.2718
    104  CB        14.2560    1.0370   -9.3570 C.3    31  TYR31       0.0548
    105  CG        14.0510    2.5020   -9.0240 C.ar   31  TYR31      -0.0200
    106  CD1       13.2430    2.8970   -7.9780 C.ar   31  TYR31      -0.0009
    107  CD2       14.6890    3.4410   -9.7880 C.ar   31  TYR31      -0.0009
    108  CE1       13.0770    4.2390   -7.7090 C.ar   31  TYR31       0.0417
    109  CE2       14.5200    4.7780   -9.5160 C.ar   31  TYR31       0.0417
    110  CZ        13.7180    5.1780   -8.4770 C.ar   31  TYR31       0.1957
    111  OH        13.5640    6.5190   -8.2110 O.3    31  TYR31      -0.2866
    112  N         13.6890    1.0290  -12.3690 N.am   32  LYS32      -0.1980
    113  CA        13.5940    1.6660  -13.7260 C.3    32  LYS32       0.1596
    114  C         12.2790    1.2610  -14.4150 C.2    32  LYS32       0.2287
    115  O         11.5970    2.0670  -15.0200 O.2    32  LYS32      -0.2864
    116  CB        14.8480    1.2140  -14.4690 C.3    32  LYS32       0.0298
    117  CG        16.0090    2.0880  -13.9110 C.3    32  LYS32       0.0038
    118  CD        15.9320    3.4920  -14.5610 C.3    32  LYS32       0.0206
    119  CE        16.7950    4.5080  -13.8230 C.3    32  LYS32       0.1093
    120  NZ        18.2380    4.4670  -14.2120 N.3    32  LYS32      -0.1314
    121  N         28.6110   -0.6820  -15.0370 N.3    50  LYS50      -0.1245
    122  CA        27.6460    0.4000  -14.6600 C.3    50  LYS50       0.1561
    123  C         26.8970    1.0810  -15.8020 C.2    50  LYS50       0.2260
    124  O         26.0380    1.8890  -15.5350 O.2    50  LYS50      -0.2867
    125  CB        28.4580    1.4010  -13.8020 C.3    50  LYS50       0.0271
    126  CG        27.5640    2.5040  -13.1720 C.3    50  LYS50       0.0035
    127  CD        28.1790    3.0010  -11.8110 C.3    50  LYS50       0.0206
    128  CE        27.4640    4.2910  -11.3480 C.3    50  LYS50       0.1093
    129  NZ        27.5800    4.4520   -9.8590 N.3    50  LYS50      -0.1314
    130  N         23.3390   -2.2860  -16.2760 N.3    54  LYS54      -0.1245
    131  CA        22.1070   -1.6390  -15.7670 C.3    54  LYS54       0.1561
    132  C         21.1920   -1.1280  -16.8990 C.2    54  LYS54       0.2260
    133  O         20.0950   -0.6900  -16.6510 O.2    54  LYS54      -0.2867
    134  CB        22.5650   -0.5060  -14.8650 C.3    54  LYS54       0.0271
    135  CG        22.9620    0.7540  -15.7020 C.3    54  LYS54       0.0035
    136  CD        23.4350    1.7630  -14.6760 C.3    54  LYS54       0.0206
    137  CE        23.7460    3.2010  -15.2630 C.3    54  LYS54       0.1093
    138  NZ        22.5310    3.9760  -15.6620 N.3    54  LYS54      -0.1314
    139  N         10.6370   -5.2870   -6.7040 N.3    73  TYR73      -0.1241
    140  CA        11.6340   -4.2650   -6.2720 C.3    73  TYR73       0.1605
    141  C         11.7470   -4.2420   -4.7510 C.2    73  TYR73       0.2264
    142  O         12.8010   -4.4210   -4.1760 O.2    73  TYR73      -0.2867
    143  CB        11.1600   -2.9180   -6.7860 C.3    73  TYR73       0.0534
    144  CG        12.0440   -1.7900   -6.2950 C.ar   73  TYR73      -0.0201
    145  CD1       13.2770   -1.6100   -6.8630 C.ar   73  TYR73      -0.0009
    146  CD2       11.6210   -0.9370   -5.2930 C.ar   73  TYR73      -0.0009
    147  CE1       14.0690   -0.5880   -6.4370 C.ar   73  TYR73       0.0417
    148  CE2       12.4300    0.0900   -4.8750 C.ar   73  TYR73       0.0417
    149  CZ        13.6550    0.2600   -5.4520 C.ar   73  TYR73       0.1957
    150  OH        14.4660    1.2870   -5.0580 O.3    73  TYR73      -0.2866
@<TRIPOS>BOND
     1   132   133    2
     2   132   131    1
     3   130   131    1
     4    99    98    1
     5   123   124    2
     6   123   122    1
     7   131   134    1
     8   135   134    1
     9   135   136    1
    10   138   137    1
    11   137   136    1
    12   121   122    1
    13   115   114    2
    14    96    98   ar
    15    96    94   ar
    16    98    97   ar
    17   122   125    1
    18   118   117    1
    19   118   119    1
    20   116   117    1
    21   116   113    1
    22   114   113    1
    23   120   119    1
    24    94    93   ar
    25   125   126    1
    26   113   112    1
    27    97    95   ar
    28   126   127    1
    29    93    95   ar
    30    93    92    1
    31   112   102   am
    32    91    90    2
    33    90    89    1
    34   127   128    1
    35   103   102    2
    36    92    89    1
    37   102   101    1
    38   128   129    1
    39    89    88    1
    40   100   101    1
    41   101   104    1
    42   107   109   ar
    43   107   105   ar
    44    88    82   am
    45   109   110   ar
    46   104   105    1
    47    83    82    2
    48    82    81    1
    49   105   106   ar
    50    75    74    2
    51    74    73    1
    52   110   111    1
    53   110   108   ar
    54    80    81    1
    55    76    73    1
    56    76    77    1
    57   106   108   ar
    58    81    84    1
    59    73    72    1
    60   145   147   ar
    61   145   144   ar
    62    78    79    1
    63    78    77    1
    64   143   144    1
    65   143   140    1
    66   139   140    1
    67    84    86    1
    68    84    85    1
    69   147   149   ar
    70   144   146   ar
    71   140   141    1
    72   149   150    1
    73   149   148   ar
    74    85    87    1
    75   146   148   ar
    76    68    67    2
    77   141   142    2
    78    67    66    1
    79     5     2    1
    80    19    20    1
    81    19    18    1
    82    21    20    1
    83    60    57    1
    84    60    61    1
    85    69    66    1
    86    69    70    1
    87    66    65    1
    88    59    58    2
    89     2     1    1
    90     2     3    1
    91    11    10    1
    92    18    17    1
    93    65    58   am
    94    65    71    1
    95    58    57    1
    96    71    70    1
    97    57    56    1
    98    61    62    1
    99    12    10    1
   100    62    63    1
   101     4     3    2
   102    10     7    1
   103    17    14    1
   104    56    51   am
   105    14    13    1
   106    14    15    1
   107    63    64    1
   108    13     8   am
   109    38    37    1
   110     8     7    1
   111     8     9    2
   112     7     6    1
   113    51    52    2
   114    51    50    1
   115    15    16    2
   116    15    22   am
   117    55    53    1
   118    37    36    1
   119    37    39    1
   120    36    33    1
   121    50    53    1
   122    50    49    1
   123    22    23    1
   124    53    54    1
   125    35    34    2
   126    32    33    1
   127    32    24   am
   128    49    42   am
   129    33    34    1
   130    23    24    1
   131    23    26    1
   132    34    40   am
   133    28    30   ar
   134    28    27   ar
   135    24    25    2
   136    30    31   ar
   137    42    43    2
   138    42    41    1
   139    27    26    1
   140    27    29   ar
   141    40    41    1
   142    31    29   ar
   143    41    44    1
   144    45    44    1
   145    45    46    1
   146    46    47    1
   147    48    47    1
