@<TRIPOS>MOLECULE
tmp/1nvrA00.pdb
 113 110 0 0 0
SMALL
GASTEIGER

@<TRIPOS>ATOM
      1  N         14.8730   12.7570   39.1640 N.3     4  VAL4       -0.1231
      2  CA        14.4730   13.3970   37.9110 C.3     4  VAL4        0.1692
      3  C         14.8570   12.6440   36.6360 C.2     4  VAL4        0.2592
      4  O         14.3940   12.9960   35.5440 O.2     4  VAL4       -0.2718
      5  CB        14.9890   14.8710   37.7950 C.3     4  VAL4        0.0266
      6  CG1       14.4720   15.6970   38.9690 C.3     4  VAL4        0.0020
      7  CG2       16.5020   14.8990   37.7550 C.3     4  VAL4        0.0020
      8  N         15.6800   11.6100   36.7680 N.am    5  GLU5       -0.1966
      9  CA        16.0770   10.8310   35.6040 C.3     5  GLU5        0.1733
     10  C         15.3060    9.5140   35.5020 C.2     5  GLU5        0.2616
     11  O         15.6210    8.6580   34.6540 O.2     5  GLU5       -0.2715
     12  CB        17.5940   10.6030   35.6230 C.3     5  GLU5        0.0429
     13  CG        18.3130   11.8320   35.0920 C.3     5  GLU5        0.1163
     14  CD        19.7730   11.5840   34.7360 C.2     5  GLU5        0.3649
     15  OE1       20.5510   11.2000   35.6510 O.co2   5  GLU5       -0.2457
     16  OE2       20.1420   11.7850   33.5450 O.co2   5  GLU5       -0.2457
     17  N         14.2850    9.3700   36.3550 N.am    6  ASP6       -0.1957
     18  CA        13.4570    8.1810   36.3530 C.3     6  ASP6        0.1840
     19  C         12.1680    8.4100   35.5490 C.2     6  ASP6        0.2622
     20  O         11.4650    9.4160   35.7250 O.2     6  ASP6       -0.2715
     21  CB        13.0790    7.7570   37.7770 C.3     6  ASP6        0.1450
     22  CG        14.2490    7.1950   38.5520 C.2     6  ASP6        0.3671
     23  OD1       15.0170    6.3900   37.9760 O.co2   6  ASP6       -0.2456
     24  OD2       14.4000    7.5450   39.7460 O.co2   6  ASP6       -0.2456
     25  N         11.8600    7.4570   34.6850 N.am    7  TRP7       -0.1960
     26  CA        10.6690    7.5390   33.8650 C.3     7  TRP7        0.1771
     27  C          9.8720    6.2430   33.9840 C.2     7  TRP7        0.2620
     28  O         10.4220    5.1350   33.9460 O.2     7  TRP7       -0.2715
     29  CB        11.0430    7.7830   32.3680 C.3     7  TRP7        0.0590
     30  CG        11.9180    9.0330   32.0890 C.ar    7  TRP7        0.0006
     31  CD1       13.2450    9.1830   32.3470 C.ar    7  TRP7        0.0946
     32  CD2       11.4790   10.2850   31.5590 C.ar    7  TRP7        0.0152
     33  NE1       13.6640   10.4520   32.0250 N.ar    7  TRP7       -0.2442
     34  CE2       12.5910   11.1460   31.5330 C.ar    7  TRP7        0.0810
     35  CE3       10.2500   10.7620   31.1110 C.ar    7  TRP7        0.0012
     36  CZ2       12.5080   12.4630   31.0680 C.ar    7  TRP7        0.0191
     37  CZ3       10.1700   12.0660   30.6560 C.ar    7  TRP7        0.0001
     38  CH2       11.2840   12.9000   30.6350 C.ar    7  TRP7        0.0015
     39  N          8.5680    6.3610   34.1450 N.am    8  ASP8       -0.1957
     40  CA         7.7460    5.1850   34.1910 C.3     8  ASP8        0.1840
     41  C          7.1600    4.9930   32.7920 C.2     8  ASP8        0.2621
     42  O          6.6930    5.9630   32.1800 O.2     8  ASP8       -0.2715
     43  CB         6.5920    5.3870   35.1650 C.3     8  ASP8        0.1450
     44  CG         7.0610    5.5440   36.5840 C.2     8  ASP8        0.3671
     45  OD1        7.9100    4.7340   37.0220 O.co2   8  ASP8       -0.2456
     46  OD2        6.5610    6.4730   37.2580 O.co2   8  ASP8       -0.2456
     47  N          7.1860    3.7610   32.3020 N.am    9  LEU9       -0.1977
     48  CA         6.6140    3.4320   30.9850 C.3     9  LEU9        0.1596
     49  C          5.1580    3.0660   31.2750 C.2     9  LEU9        0.2287
     50  O          4.8720    2.0260   31.8750 O.2     9  LEU9       -0.2864
     51  CB         7.3770    2.2620   30.3620 C.3     9  LEU9        0.0297
     52  CG         8.8470    2.6010   30.1280 C.3     9  LEU9        0.0022
     53  CD1        9.5770    1.4490   29.3850 C.3     9  LEU9        0.0001
     54  CD2        8.8930    3.8770   29.3000 C.3     9  LEU9        0.0001
     55  N          6.9370    3.2600   23.7400 N.3    22  GLN22      -0.1245
     56  CA         6.1750    3.4250   24.9710 C.3    22  GLN22       0.1566
     57  C          6.0820    4.9110   25.3620 C.2    22  GLN22       0.2260
     58  O          6.9930    5.6970   25.0840 O.2    22  GLN22      -0.2867
     59  CB         6.8840    2.6790   26.1370 C.3    22  GLN22       0.0367
     60  CG         6.8870    1.1190   26.0860 C.3    22  GLN22       0.0905
     61  CD         5.5330    0.5050   26.4140 C.2    22  GLN22       0.2608
     62  OE1        4.8240    0.9670   27.3140 O.2    22  GLN22      -0.2717
     63  NE2        5.1740   -0.5530   25.6990 N.am   22  GLN22      -0.0878
     64  N          9.3010    6.7730   24.0820 N.3    35  VAL35      -0.1245
     65  CA        10.5990    6.1330   24.1250 C.3    35  VAL35       0.1561
     66  C         10.5790    4.9760   23.1550 C.2    35  VAL35       0.2260
     67  O          9.7820    4.0790   23.2930 O.2    35  VAL35      -0.2867
     68  CB        10.9300    5.6090   25.5660 C.3    35  VAL35       0.0252
     69  CG1       12.2310    4.7700   25.5410 C.3    35  VAL35       0.0019
     70  CG2       11.1140    6.8130   26.5290 C.3    35  VAL35       0.0019
     71  N         20.1490    6.2290   25.1140 N.3    65  ARG65      -0.1245
     72  CA        20.9220    5.5570   26.1350 C.3    65  ARG65       0.1563
     73  C         20.8090    4.0750   25.8480 C.2    65  ARG65       0.2260
     74  O         19.7610    3.5910   25.4160 O.2    65  ARG65      -0.2867
     75  CB        20.3220    5.8580   27.5060 C.3    65  ARG65       0.0307
     76  CG        20.7470    4.9160   28.5990 C.3    65  ARG65       0.0489
     77  CD        19.8990    5.1290   29.8400 C.3    65  ARG65       0.2205
     78  NE        20.1860    4.1200   30.8550 N.pl3  65  ARG65      -0.0865
     79  CZ        21.3340    4.0470   31.5200 C.cat  65  ARG65       0.5346
     80  NH1       22.3000    4.9310   31.2790 N.pl3  65  ARG65       0.1354
     81  NH2       21.5180    3.0840   32.4160 N.pl3  65  ARG65       0.1354
     82  N         21.7680   -0.0230   27.2280 N.3    67  GLU67      -0.1245
     83  CA        22.1650   -0.8630   28.3290 C.3    67  GLU67       0.1567
     84  C         22.3050   -2.2100   27.6660 C.2    67  GLU67       0.2260
     85  O         21.3280   -2.9340   27.4870 O.2    67  GLU67      -0.2867
     86  CB        21.0820   -0.8920   29.4010 C.3    67  GLU67       0.0388
     87  CG        20.6920    0.4880   29.8730 C.3    67  GLU67       0.1160
     88  CD        19.6450    0.4580   30.9640 C.2    67  GLU67       0.3649
     89  OE1       18.6420   -0.2730   30.8040 O.co2  67  GLU67      -0.2457
     90  OE2       19.8220    1.1760   31.9750 O.co2  67  GLU67      -0.2457
     91  N         17.5030    2.8590   23.9000 N.3    72  TYR72      -0.1241
     92  CA        16.3210    3.6330   24.2800 C.3    72  TYR72       0.1605
     93  C         16.4130    5.0110   23.6490 C.2    72  TYR72       0.2264
     94  O         17.2560    5.8260   24.0350 O.2    72  TYR72      -0.2867
     95  CB        16.2100    3.8300   25.7980 C.3    72  TYR72       0.0534
     96  CG        16.0930    2.5620   26.5910 C.ar   72  TYR72      -0.0201
     97  CD1       17.2410    1.8860   27.0310 C.ar   72  TYR72      -0.0009
     98  CD2       14.8510    2.0210   26.8920 C.ar   72  TYR72      -0.0009
     99  CE1       17.1420    0.7050   27.7490 C.ar   72  TYR72       0.0417
    100  CE2       14.7510    0.8360   27.6070 C.ar   72  TYR72       0.0417
    101  CZ        15.9050    0.1880   28.0270 C.ar   72  TYR72       0.1957
    102  OH        15.8200   -1.0080   28.6990 O.3    72  TYR72      -0.2866
    103  N         14.7610    8.6290   23.1710 N.3    74  PHE74      -0.1241
    104  CA        13.7880    9.5490   23.7730 C.3    74  PHE74       0.1605
    105  C         13.3730   10.5520   22.6930 C.2    74  PHE74       0.2264
    106  O         14.2160   11.2750   22.1460 O.2    74  PHE74      -0.2867
    107  CB        14.4050   10.2690   24.9910 C.3    74  PHE74       0.0534
    108  CG        14.6770    9.3460   26.1760 C.ar   74  PHE74      -0.0203
    109  CD1       15.7580    8.4730   26.1570 C.ar   74  PHE74      -0.0042
    110  CD2       13.8390    9.3510   27.2990 C.ar   74  PHE74      -0.0042
    111  CE1       16.0220    7.5960   27.2480 C.ar   74  PHE74      -0.0003
    112  CE2       14.0890    8.4770   28.4100 C.ar   74  PHE74      -0.0003
    113  CZ        15.1890    7.6000   28.3710 C.ar   74  PHE74      -0.0000
@<TRIPOS>BOND
     1   106   105    2
     2   105   104    1
     3    66    67    2
     4    66    65    1
     5   103   104    1
     6    93    94    2
     7    93    92    1
     8    55    56    1
     9   104   107    1
    10    91    92    1
    11    64    65    1
    12    65    68    1
    13    92    95    1
    14    56    57    1
    15    56    59    1
    16   107   108    1
    17    58    57    2
    18    71    72    1
    19    74    73    2
    20    69    68    1
    21    68    70    1
    22    63    61   am
    23    95    96    1
    24    73    72    1
    25    60    59    1
    26    60    61    1
    27    72    75    1
    28   109   108   ar
    29   109   111   ar
    30   108   110   ar
    31    61    62    2
    32    96    98   ar
    33    96    97   ar
    34    98   100   ar
    35    97    99   ar
    36    82    83    1
    37   111   113   ar
    38   110   112   ar
    39    85    84    2
    40    75    76    1
    41   100   101   ar
    42    84    83    1
    43    99   101   ar
    44   101   102    1
    45    83    86    1
    46   113   112   ar
    47    76    77    1
    48    54    52    1
    49    53    52    1
    50    86    87    1
    51    77    78    1
    52    87    88    1
    53    52    51    1
    54    51    48    1
    55    38    37   ar
    56    38    36   ar
    57    37    35   ar
    58    89    88   ar
    59    78    79    2
    60    88    90   ar
    61    48    49    1
    62    48    47    1
    63    36    34   ar
    64    35    32   ar
    65    49    50    2
    66    80    79    1
    67    79    81    1
    68    34    32   ar
    69    34    33   ar
    70    32    30   ar
    71    33    31   ar
    72    30    31   ar
    73    30    29    1
    74    42    41    2
    75    47    41   am
    76    29    26    1
    77    41    40    1
    78    16    14   ar
    79    26    27    1
    80    26    25    1
    81    28    27    2
    82    27    39   am
    83    39    40    1
    84    40    43    1
    85    11    10    2
    86    25    19   am
    87    14    13    1
    88    14    15   ar
    89    13    12    1
    90    43    44    1
    91    10     9    1
    92    10    17   am
    93     4     3    2
    94    19    20    2
    95    19    18    1
    96     9    12    1
    97     9     8    1
    98    18    17    1
    99    18    21    1
   100    44    45   ar
   101    44    46   ar
   102     3     8   am
   103     3     2    1
   104     7     5    1
   105    21    22    1
   106     5     2    1
   107     5     6    1
   108     2     1    1
   109    23    22   ar
   110    22    24   ar
