@<TRIPOS>MOLECULE
tmp/1nvsA01.pdb
 154 144 0 0 0
SMALL
GASTEIGER

@<TRIPOS>ATOM
      1  N          2.4440    2.6870   22.7900 N.3    13  LEU13      -0.1231
      2  CA         2.0220    3.5780   21.7210 C.3    13  LEU13       0.1693
      3  C          2.0980    2.8680   20.3750 C.2    13  LEU13       0.2592
      4  O          1.2790    3.1070   19.4920 O.2    13  LEU13      -0.2718
      5  CB         2.8970    4.8350   21.7040 C.3    13  LEU13       0.0284
      6  CG         2.8100    5.7260   22.9460 C.3    13  LEU13       0.0019
      7  CD1        3.7480    6.9120   22.7940 C.3    13  LEU13       0.0001
      8  CD2        1.3780    6.1980   23.1400 C.3    13  LEU13       0.0001
      9  N          3.0830    1.9890   20.2290 N.am   14  GLY14      -0.1957
     10  CA         3.2450    1.2590   18.9870 C.3    14  GLY14       0.1869
     11  C          3.8160   -0.1240   19.2210 C.2    14  GLY14       0.2309
     12  O          4.3280   -0.4160   20.3030 O.2    14  GLY14      -0.2863
     13  N          9.7670   -5.2730   15.1450 N.3    18  TYR18      -0.1241
     14  CA        10.9360   -4.4020   15.1610 C.3    18  TYR18       0.1605
     15  C         11.1430   -3.8500   16.5690 C.2    18  TYR18       0.2264
     16  O         12.2500   -3.4560   16.9380 O.2    18  TYR18      -0.2867
     17  CB        10.7370   -3.2490   14.1720 C.3    18  TYR18       0.0534
     18  CG         9.6370   -2.2780   14.5580 C.ar   18  TYR18      -0.0201
     19  CD1        9.8690   -1.2620   15.4870 C.ar   18  TYR18      -0.0009
     20  CD2        8.3620   -2.3790   13.9990 C.ar   18  TYR18      -0.0009
     21  CE1        8.8580   -0.3700   15.8510 C.ar   18  TYR18       0.0417
     22  CE2        7.3440   -1.4920   14.3570 C.ar   18  TYR18       0.0417
     23  CZ         7.6000   -0.4910   15.2820 C.ar   18  TYR18       0.1957
     24  OH         6.6030    0.3870   15.6410 O.3    18  TYR18      -0.2866
     25  N          6.9830    1.2540   21.0340 N.3    21  VAL21      -0.1245
     26  CA         7.0720    2.6280   21.5030 C.3    21  VAL21       0.1561
     27  C          6.1920    2.7390   22.7400 C.2    21  VAL21       0.2260
     28  O          5.0110    2.4030   22.6970 O.2    21  VAL21      -0.2867
     29  CB         6.5590    3.6160   20.4360 C.3    21  VAL21       0.0252
     30  CG1        6.6800    5.0430   20.9470 C.3    21  VAL21       0.0019
     31  CG2        7.3430    3.4350   19.1500 C.3    21  VAL21       0.0019
     32  N          7.9420   10.0180   24.3900 N.3    34  ALA34      -0.1245
     33  CA         7.7760    8.7130   23.7730 C.3    34  ALA34       0.1562
     34  C          9.1380    8.0430   23.7920 C.2    34  ALA34       0.2260
     35  O         10.1540    8.6670   23.4910 O.2    34  ALA34      -0.2867
     36  CB         7.2780    8.8610   22.3420 C.3    34  ALA34       0.0290
     37  N         11.2670    4.9640   22.2160 N.3    36  LYS36      -0.1245
     38  CA        11.3390    3.8880   21.2410 C.3    36  LYS36       0.1561
     39  C         12.3440    2.8760   21.7800 C.2    36  LYS36       0.2260
     40  O         13.4990    3.2140   22.0480 O.2    36  LYS36      -0.2867
     41  CB        11.7890    4.4090   19.8700 C.3    36  LYS36       0.0271
     42  CG        11.7310    3.3410   18.7830 C.3    36  LYS36       0.0035
     43  CD        12.1770    3.8590   17.4260 C.3    36  LYS36       0.0206
     44  CE        12.1010    2.7490   16.3850 C.3    36  LYS36       0.1093
     45  NZ        12.5530    3.1970   15.0360 N.3    36  LYS36      -0.1314
     46  N         19.5760    5.9760   12.1490 N.3    46  GLU46      -0.1245
     47  CA        18.3650    6.6930   12.5360 C.3    46  GLU46       0.1567
     48  C         18.6930    7.7300   13.6080 C.2    46  GLU46       0.2260
     49  O         18.1810    8.8480   13.5870 O.2    46  GLU46      -0.2867
     50  CB        17.3080    5.7210   13.0710 C.3    46  GLU46       0.0388
     51  CG        15.9390    6.3660   13.2760 C.3    46  GLU46       0.1160
     52  CD        14.9090    5.4190   13.8650 C.2    46  GLU46       0.3649
     53  OE1       14.9090    4.2250   13.5010 O.co2  46  GLU46      -0.2457
     54  OE2       14.0840    5.8750   14.6820 O.co2  46  GLU46      -0.2457
     55  N          9.0940   15.3360   14.6020 N.3    59  VAL59      -0.1245
     56  CA         9.1750   14.8020   15.9560 C.3    59  VAL59       0.1561
     57  C         10.5460   15.1060   16.5560 C.2    59  VAL59       0.2260
     58  O         11.5790   14.7350   15.9980 O.2    59  VAL59      -0.2867
     59  CB         8.9110   13.2790   15.9580 C.3    59  VAL59       0.0252
     60  CG1        9.1920   12.6840   17.3450 C.3    59  VAL59       0.0019
     61  CG2        7.4600   13.0170   15.5590 C.3    59  VAL59       0.0019
     62  N         11.8260   10.3940   22.3060 N.3    75  LEU75      -0.1231
     63  CA        11.2010   11.2240   21.2850 C.3    75  LEU75       0.1693
     64  C          9.9920   11.9980   21.7770 C.2    75  LEU75       0.2592
     65  O          9.3460   11.6250   22.7570 O.2    75  LEU75      -0.2718
     66  CB        10.7800   10.3430   20.1160 C.3    75  LEU75       0.0284
     67  CG        11.9080    9.5370   19.4660 C.3    75  LEU75       0.0019
     68  CD1       11.3220    8.3450   18.7340 C.3    75  LEU75       0.0001
     69  CD2       12.7040   10.4300   18.5290 C.3    75  LEU75       0.0001
     70  N          9.6880   13.0830   21.0760 N.am   76  GLU76      -0.1966
     71  CA         8.5500   13.9270   21.4130 C.3    76  GLU76       0.1733
     72  C          7.2380   13.1400   21.4310 C.2    76  GLU76       0.2616
     73  O          6.9490   12.3780   20.5120 O.2    76  GLU76      -0.2715
     74  CB         8.4620   15.0730   20.3990 C.3    76  GLU76       0.0429
     75  CG         7.1580   15.8380   20.4130 C.3    76  GLU76       0.1163
     76  CD         7.1800   17.0200   19.4630 C.2    76  GLU76       0.3649
     77  OE1        8.0070   17.0170   18.5250 O.co2  76  GLU76      -0.2457
     78  OE2        6.3610   17.9440   19.6500 O.co2  76  GLU76      -0.2457
     79  N          6.4550   13.3120   22.4900 N.am   77  TYR77      -0.1960
     80  CA         5.1680   12.6310   22.5990 C.3    77  TYR77       0.1771
     81  C          4.0870   13.4830   21.9410 C.2    77  TYR77       0.2620
     82  O          3.8940   14.6460   22.3000 O.2    77  TYR77      -0.2715
     83  CB         4.8050   12.3890   24.0720 C.3    77  TYR77       0.0574
     84  CG         3.3990   11.8550   24.2890 C.ar   77  TYR77      -0.0198
     85  CD1        2.9670   10.6850   23.6580 C.ar   77  TYR77      -0.0009
     86  CD2        2.5000   12.5200   25.1290 C.ar   77  TYR77      -0.0009
     87  CE1        1.6730   10.1900   23.8580 C.ar   77  TYR77       0.0417
     88  CE2        1.2070   12.0360   25.3350 C.ar   77  TYR77       0.0417
     89  CZ         0.8010   10.8700   24.6950 C.ar   77  TYR77       0.1957
     90  OH        -0.4770   10.3880   24.8840 O.3    77  TYR77      -0.2866
     91  N          3.3940   12.9000   20.9700 N.am   78  CYS78      -0.1954
     92  CA         2.3250   13.5870   20.2540 C.3    78  CYS78       0.1843
     93  C          1.0080   12.9390   20.6870 C.2    78  CYS78       0.2626
     94  O          0.5930   11.9170   20.1440 O.2    78  CYS78      -0.2714
     95  CB         2.5550   13.4400   18.7490 C.3    78  CYS78       0.0997
     96  SG         4.2260   13.9230   18.2420 S.3    78  CYS78      -0.0797
     97  N          0.3570   13.5460   21.6770 N.am   79  SER79      -0.1950
     98  CA        -0.8860   13.0100   22.2360 C.3    79  SER79       0.1924
     99  C         -2.0760   12.8820   21.2890 C.2    79  SER79       0.2314
    100  O         -3.0100   12.1320   21.5730 O.2    79  SER79      -0.2863
    101  CB        -1.3000   13.8300   23.4670 C.3    79  SER79       0.2116
    102  OG        -1.5290   15.1890   23.1400 O.3    79  SER79      -0.2180
    103  N         -2.1120   11.4700   18.4620 N.3    81  GLY81      -0.1210
    104  CA        -2.0600   10.2360   17.7000 C.3    81  GLY81       0.1956
    105  C         -1.6780   10.4220   16.2440 C.2    81  GLY81       0.2611
    106  O         -1.1100   11.4460   15.8650 O.2    81  GLY81      -0.2717
    107  N         -2.0050    9.4220   15.4330 N.am   82  GLU82      -0.1979
    108  CA        -1.6950    9.4270   14.0090 C.3    82  GLU82       0.1602
    109  C         -2.7090   10.1700   13.1580 C.2    82  GLU82       0.2287
    110  O         -3.9050   10.1400   13.4260 O.2    82  GLU82      -0.2864
    111  CB        -1.6180    7.9930   13.4870 C.3    82  GLU82       0.0415
    112  CG        -0.4160    7.1850   13.9450 C.3    82  GLU82       0.1163
    113  CD        -0.5820    5.7110   13.6320 C.2    82  GLU82       0.3649
    114  OE1       -1.1440    5.3880   12.5680 O.co2  82  GLU82      -0.2457
    115  OE2       -0.1490    4.8720   14.4450 O.co2  82  GLU82      -0.2457
    116  N          0.3500    7.1980    8.7250 N.3   125  GLU125     -0.1231
    117  CA         0.7940    6.4850    9.9170 C.3   125  GLU125      0.1699
    118  C          2.0620    7.0960   10.5110 C.2   125  GLU125      0.2592
    119  O          2.3530    6.9140   11.7000 O.2   125  GLU125     -0.2718
    120  CB         1.0380    5.0050    9.5960 C.3   125  GLU125      0.0402
    121  CG        -0.2110    4.2660    9.1330 C.3   125  GLU125      0.1161
    122  CD        -0.3690    4.2370    7.6200 C.2   125  GLU125      0.3649
    123  OE1       -0.0810    5.2560    6.9530 O.co2 125  GLU125     -0.2457
    124  OE2       -0.7990    3.1860    7.0980 O.co2 125  GLU125     -0.2457
    125  N          2.8140    7.8130    9.6780 N.am  126  ASN126     -0.1974
    126  CA         4.0510    8.4570   10.1170 C.3   126  ASN126      0.1688
    127  C          3.9280    9.9700   10.2900 C.2   126  ASN126      0.2292
    128  O          4.9360   10.6770   10.3460 O.2   126  ASN126     -0.2864
    129  CB         5.1990    8.1470    9.1480 C.3   126  ASN126      0.1181
    130  CG         5.7140    6.7250    9.2900 C.2   126  ASN126      0.2629
    131  OD1        5.6660    6.1450   10.3800 O.2   126  ASN126     -0.2716
    132  ND2        6.2320    6.1630    8.1960 N.am  126  ASN126     -0.0877
    133  N          2.2510   12.3960   12.9240 N.3   128  LEU128     -0.1245
    134  CA         1.6010   12.4660   14.2290 C.3   128  LEU128      0.1561
    135  C          1.0910   13.8620   14.5500 C.2   128  LEU128      0.2260
    136  O          1.5250   14.8450   13.9520 O.2   128  LEU128     -0.2867
    137  CB         2.5840   12.0010   15.3050 C.3   128  LEU128      0.0270
    138  CG         3.2400   10.6580   14.9740 C.3   128  LEU128      0.0019
    139  CD1        4.3630   10.3740   15.9600 C.3   128  LEU128      0.0001
    140  CD2        2.1900    9.5600   14.9980 C.3   128  LEU128      0.0001
    141  N          7.1670   11.7570   11.5480 N.3   138  SER138     -0.1202
    142  CA         7.7470   10.7520   12.4320 C.3   138  SER138      0.2020
    143  C          8.4190    9.5420   11.7760 C.2   138  SER138      0.2618
    144  O          8.1190    9.1910   10.6350 O.2   138  SER138     -0.2717
    145  CB         6.6510   10.2530   13.3810 C.3   138  SER138      0.2103
    146  OG         7.0670    9.1260   14.1260 O.3   138  SER138     -0.2182
    147  N          9.3230    8.9220   12.5370 N.am  139  ASP139     -0.1973
    148  CA        10.0640    7.7200   12.1460 C.3   139  ASP139      0.1709
    149  C         11.0660    7.9170   11.0140 C.2   139  ASP139      0.2293
    150  O         10.7000    7.9230    9.8390 O.2   139  ASP139     -0.2864
    151  CB         9.0980    6.5920   11.7630 C.3   139  ASP139      0.1436
    152  CG         9.7470    5.2130   11.8400 C.2   139  ASP139      0.3671
    153  OD1       10.9560    5.1070   11.5570 O.co2 139  ASP139     -0.2456
    154  OD2        9.0440    4.2320   12.1740 O.co2 139  ASP139     -0.2456
@<TRIPOS>BOND
     1   123   122   ar
     2   124   122   ar
     3   122   121    1
     4   132   130   am
     5   116   117    1
     6   121   120    1
     7   129   130    1
     8   129   126    1
     9   130   131    2
    10   120   117    1
    11   125   126    1
    12   125   118   am
    13   150   149    2
    14   117   118    1
    15   126   127    1
    16   127   128    2
    17   118   119    2
    18   144   143    2
    19   149   148    1
    20   141   142    1
    21   153   152   ar
    22   151   152    1
    23   151   148    1
    24   143   142    1
    25   143   147   am
    26   152   154   ar
    27   148   147    1
    28    46    47    1
    29   142   145    1
    30    47    50    1
    31    47    48    1
    32   114   113   ar
    33   133   134    1
    34    50    51    1
    35   109   110    2
    36   109   108    1
    37    51    52    1
    38   145   146    1
    39   111   112    1
    40   111   108    1
    41    53    52   ar
    42    49    48    2
    43   113   112    1
    44   113   115   ar
    45    52    54   ar
    46   136   135    2
    47    20    22   ar
    48    20    18   ar
    49   108   107    1
    50    17    18    1
    51    17    14    1
    52   134   135    1
    53   134   137    1
    54    22    23   ar
    55    18    19   ar
    56    55    56    1
    57   138   140    1
    58   138   137    1
    59   138   139    1
    60    45    44    1
    61    13    14    1
    62    14    15    1
    63    23    24    1
    64    23    21   ar
    65   107   105   am
    66    19    21   ar
    67    61    59    1
    68   106   105    2
    69    56    59    1
    70    56    57    1
    71    59    60    1
    72    58    57    2
    73   105   104    1
    74    44    43    1
    75    15    16    2
    76    43    42    1
    77   104   103    1
    78    96    95    1
    79    77    76   ar
    80    69    67    1
    81    68    67    1
    82    95    92    1
    83    42    41    1
    84    10    11    1
    85    10     9    1
    86    31    29    1
    87    11    12    2
    88    76    78   ar
    89    76    75    1
    90    67    66    1
    91     4     3    2
    92    41    38    1
    93    66    63    1
    94    94    93    2
    95     9     3   am
    96    92    93    1
    97    92    91    1
    98     3     2    1
    99    74    75    1
   100    74    71    1
   101    29    30    1
   102    29    26    1
   103    73    72    2
   104    93    97   am
   105    91    81   am
   106    25    26    1
   107    70    71    1
   108    70    64   am
   109    38    39    1
   110    38    37    1
   111    63    64    1
   112    63    62    1
   113    99   100    2
   114    99    98    1
   115    71    72    1
   116    72    79   am
   117    26    27    1
   118    97    98    1
   119     5     2    1
   120     5     6    1
   121     2     1    1
   122    64    65    2
   123    39    40    2
   124    81    82    2
   125    81    80    1
   126    98   101    1
   127    36    33    1
   128    79    80    1
   129    80    83    1
   130    28    27    2
   131     7     6    1
   132     6     8    1
   133   102   101    1
   134    35    34    2
   135    85    87   ar
   136    85    84   ar
   137    33    34    1
   138    33    32    1
   139    87    89   ar
   140    83    84    1
   141    84    86   ar
   142    89    90    1
   143    89    88   ar
   144    86    88   ar
