@<TRIPOS>MOLECULE
tmp/1nvtA00.pdb
 173 163 0 0 0
SMALL
GASTEIGER

@<TRIPOS>ATOM
      1  N         27.3520   -4.3400   31.0030 N.3   111  ASP111     -0.1239
      2  CA        27.7580   -4.3590   29.6070 C.3   111  ASP111      0.1674
      3  C         29.2760   -4.4850   29.5170 C.2   111  ASP111      0.2266
      4  O         29.8020   -5.1760   28.6390 O.2   111  ASP111     -0.2867
      5  CB        27.2870   -3.0890   28.8930 C.3   111  ASP111      0.1410
      6  CG        25.7720   -3.0130   28.7810 C.2   111  ASP111      0.3668
      7  OD1       25.1430   -4.0450   28.4520 O.co2 111  ASP111     -0.2456
      8  OD2       25.2110   -1.9200   29.0090 O.co2 111  ASP111     -0.2456
      9  N         34.6920    2.1050   16.8900 N.3   135  GLY135     -0.1210
     10  CA        33.4400    2.6940   17.3280 C.3   135  GLY135      0.1956
     11  C         33.6620    3.5260   18.5740 C.2   135  GLY135      0.2612
     12  O         34.7170    3.4410   19.1970 O.2   135  GLY135     -0.2717
     13  N         32.6740    4.3240   18.9520 N.am  136  ALA136     -0.1965
     14  CA        32.8220    5.1640   20.1280 C.3   136  ALA136      0.1728
     15  C         31.4870    5.4390   20.8070 C.2   136  ALA136      0.2617
     16  O         31.3940    6.3030   21.6800 O.2   136  ALA136     -0.2715
     17  CB        33.5000    6.4780   19.7370 C.3   136  ALA136      0.0334
     18  N         30.4580    4.6970   20.4100 N.am  137  GLY137     -0.1940
     19  CA        29.1420    4.8800   20.9960 C.3   137  GLY137      0.2014
     20  C         29.0350    4.2060   22.3500 C.2   137  GLY137      0.2639
     21  O         30.0490    3.9250   22.9980 O.2   137  GLY137     -0.2714
     22  N         27.8070    3.9380   22.7770 N.am  138  GLY138     -0.1939
     23  CA        27.5910    3.2930   24.0580 C.3   138  GLY138      0.2014
     24  C         28.2740    1.9460   24.2330 C.2   138  GLY138      0.2638
     25  O         28.7710    1.6420   25.3180 O.2   138  GLY138     -0.2714
     26  N         28.2970    1.1320   23.1850 N.am  139  ALA139     -0.1977
     27  CA        28.9320   -0.1860   23.2810 C.3   139  ALA139      0.1597
     28  C         30.4420   -0.0510   23.4400 C.2   139  ALA139      0.2287
     29  O         31.0190   -0.5820   24.3890 O.2   139  ALA139     -0.2864
     30  CB        28.6100   -1.0360   22.0490 C.3   139  ALA139      0.0319
     31  N         37.6440    5.5360   15.4030 N.3   157  ASN157     -0.1225
     32  CA        36.2920    5.9210   15.0300 C.3   157  ASN157      0.1785
     33  C         36.2190    6.7940   13.7710 C.2   157  ASN157      0.2597
     34  O         37.2010    7.4320   13.3750 O.2   157  ASN157     -0.2718
     35  CB        35.6480    6.6680   16.1980 C.3   157  ASN157      0.1169
     36  CG        34.1410    6.7350   16.0870 C.2   157  ASN157      0.2627
     37  OD1       33.5390    7.8010   16.2380 O.2   157  ASN157     -0.2716
     38  ND2       33.5200    5.5890   15.8350 N.am  157  ASN157     -0.0877
     39  N         35.0410    6.8190   13.1490 N.am  158  ARG158     -0.1966
     40  CA        34.8320    7.6270   11.9570 C.3   158  ARG158      0.1729
     41  C         35.0710    9.0950   12.3170 C.2   158  ARG158      0.2616
     42  O         35.8300    9.7960   11.6440 O.2   158  ARG158     -0.2715
     43  CB        33.4120    7.4290   11.4240 C.3   158  ARG158      0.0348
     44  CG        33.0290    8.4040   10.3260 C.3   158  ARG158      0.0492
     45  CD        31.7190    8.0160    9.6730 C.3   158  ARG158      0.2205
     46  NE        30.6680    7.7880   10.6570 N.pl3 158  ARG158     -0.0865
     47  CZ        29.4240    7.4380   10.3500 C.cat 158  ARG158      0.5346
     48  NH1       29.0680    7.2750    9.0770 N.pl3 158  ARG158      0.1354
     49  NH2       28.5350    7.2430   11.3160 N.pl3 158  ARG158      0.1354
     50  N         34.4200    9.5600   13.3760 N.am  159  THR159     -0.1951
     51  CA        34.6040   10.9380   13.8240 C.3   159  THR159      0.1897
     52  C         35.6370   10.9020   14.9620 C.2   159  THR159      0.2313
     53  O         35.2980   10.5920   16.1070 O.2   159  THR159     -0.2863
     54  CB        33.2660   11.5340   14.3210 C.3   159  THR159      0.1794
     55  OG1       32.8340   10.8370   15.4930 O.3   159  THR159     -0.2208
     56  CG2       32.1870   11.3860   13.2480 C.3   159  THR159      0.0378
     57  N         35.2550   12.2870   18.5840 N.3   162  LYS162     -0.1245
     58  CA        34.5660   11.4100   19.5230 C.3   162  LYS162      0.1561
     59  C         35.5400   10.4130   20.1320 C.2   162  LYS162      0.2260
     60  O         35.4770   10.1170   21.3260 O.2   162  LYS162     -0.2867
     61  CB        33.4340   10.6620   18.8140 C.3   162  LYS162      0.0271
     62  CG        32.0360   11.1610   19.1680 C.3   162  LYS162      0.0035
     63  CD        31.2500   10.1130   19.9590 C.3   162  LYS162      0.0206
     64  CE        30.5780    9.1030   19.0400 C.3   162  LYS162      0.1093
     65  NZ        29.5450    9.7670   18.2040 N.3   162  LYS162     -0.1314
     66  N         39.5890    5.1860   11.6080 N.3   187  LEU187     -0.1245
     67  CA        39.3740    3.7830   11.2850 C.3   187  LEU187      0.1561
     68  C         40.5310    3.2390   10.4560 C.2   187  LEU187      0.2260
     69  O         40.5590    2.0600   10.1030 O.2   187  LEU187     -0.2867
     70  CB        38.0710    3.6370   10.5070 C.3   187  LEU187      0.0270
     71  CG        36.8370    4.1120   11.2690 C.3   187  LEU187      0.0019
     72  CD1       35.6540    4.2180   10.3270 C.3   187  LEU187      0.0001
     73  CD2       36.5540    3.1490   12.4030 C.3   187  LEU187      0.0001
     74  N         32.6070   -2.3200   17.4530 N.3   200  ALA200     -0.1231
     75  CA        31.4960   -1.7930   18.2320 C.3   200  ALA200      0.1694
     76  C         30.7070   -0.8050   17.3780 C.2   200  ALA200      0.2593
     77  O         30.2560    0.2370   17.8680 O.2   200  ALA200     -0.2718
     78  CB        32.0150   -1.1120   19.4900 C.3   200  ALA200      0.0304
     79  N         30.5690   -1.1380   16.0950 N.am  201  THR201     -0.1940
     80  CA        29.8240   -0.3200   15.1400 C.3   201  THR201      0.2013
     81  C         28.7720   -1.2120   14.4860 C.2   201  THR201      0.2484
     82  O         28.8620   -2.4380   14.5510 O.2   201  THR201     -0.2729
     83  CB        30.7230    0.2440   14.0100 C.3   201  THR201      0.1807
     84  OG1       30.9740   -0.7820   13.0400 O.3   201  THR201     -0.2208
     85  CG2       32.0410    0.7400   14.5710 C.3   201  THR201      0.0379
     86  N         27.7570   -0.6050   13.8510 N.am  202  PRO202     -0.2715
     87  CA        26.6860   -1.3560   13.1850 C.3   202  PRO202      0.1536
     88  C         27.0200   -1.8300   11.7710 C.2   202  PRO202      0.2598
     89  O         26.1480   -2.3410   11.0720 O.2   202  PRO202     -0.2715
     90  CB        25.5170   -0.3650   13.1710 C.3   202  PRO202      0.0310
     91  CG        25.8550    0.6190   14.2690 C.3   202  PRO202      0.0237
     92  CD        27.3370    0.7840   14.0900 C.3   202  PRO202      0.0939
     93  N         28.2640   -1.6590   11.3370 N.am  203  ILE203     -0.1978
     94  CA        28.6320   -2.0770    9.9860 C.3   203  ILE203      0.1596
     95  C         28.5020   -3.5860    9.7960 C.2   203  ILE203      0.2287
     96  O         29.1550   -4.3700   10.4860 O.2   203  ILE203     -0.2864
     97  CB        30.0710   -1.6390    9.6320 C.3   203  ILE203      0.0276
     98  CG1       30.1620   -0.1110    9.6590 C.3   203  ILE203      0.0022
     99  CG2       30.4570   -2.1690    8.2570 C.3   203  ILE203      0.0022
    100  CD1       31.4890    0.4420    9.1710 C.3   203  ILE203      0.0001
    101  N         25.5980   -5.1340   10.1490 N.3   205  MET205     -0.1245
    102  CA        24.3670   -5.4960   10.8490 C.3   205  MET205      0.1570
    103  C         23.1530   -5.3580    9.9240 C.2   205  MET205      0.2261
    104  O         23.0930   -4.4500    9.0910 O.2   205  MET205     -0.2867
    105  CB        24.1900   -4.5970   12.0800 C.3   205  MET205      0.0387
    106  CG        22.8780   -4.7800   12.8210 C.3   205  MET205      0.0595
    107  SD        22.6850   -3.6350   14.2040 S.3   205  MET205     -0.1393
    108  CE        22.3180   -2.1190   13.3310 C.3   205  MET205      0.0692
    109  N         34.6290   -3.5480    8.2330 N.3   214  ILE214     -0.1245
    110  CA        35.2720   -2.4250    8.9010 C.3   214  ILE214      0.1561
    111  C         36.7760   -2.4500    8.6260 C.2   214  ILE214      0.2260
    112  O         37.4770   -1.4610    8.8440 O.2   214  ILE214     -0.2867
    113  CB        35.0170   -2.4910   10.4320 C.3   214  ILE214      0.0252
    114  CG1       35.4660   -1.1930   11.1100 C.3   214  ILE214      0.0019
    115  CG2       35.7490   -3.6800   11.0290 C.3   214  ILE214      0.0019
    116  CD1       34.5750   -0.0030   10.8190 C.3   214  ILE214      0.0001
    117  N         30.6170   -7.3060   18.0620 N.3   229  LEU229     -0.1231
    118  CA        29.4770   -7.1600   18.9580 C.3   229  LEU229      0.1693
    119  C         28.1220   -7.3660   18.2720 C.2   229  LEU229      0.2592
    120  O         27.1240   -7.6660   18.9250 O.2   229  LEU229     -0.2718
    121  CB        29.5280   -5.7900   19.6400 C.3   229  LEU229      0.0284
    122  CG        30.7080   -5.5950   20.5990 C.3   229  LEU229      0.0019
    123  CD1       30.6630   -4.2100   21.2210 C.3   229  LEU229      0.0001
    124  CD2       30.6540   -6.6560   21.6820 C.3   229  LEU229      0.0001
    125  N         28.0870   -7.2090   16.9560 N.am  230  ILE230     -0.1966
    126  CA        26.8480   -7.4000   16.2110 C.3   230  ILE230      0.1727
    127  C         26.3650   -8.8390   16.3890 C.2   230  ILE230      0.2616
    128  O         27.1700   -9.7490   16.6090 O.2   230  ILE230     -0.2715
    129  CB        27.0580   -7.1390   14.6960 C.3   230  ILE230      0.0290
    130  CG1       27.4460   -5.6760   14.4640 C.3   230  ILE230      0.0022
    131  CG2       25.7950   -7.5070   13.9170 C.3   230  ILE230      0.0023
    132  CD1       27.6920   -5.3120   12.9970 C.3   230  ILE230      0.0001
    133  N         25.0510   -9.0370   16.3150 N.am  231  TYR231     -0.1974
    134  CA        24.4740  -10.3740   16.4280 C.3   231  TYR231      0.1639
    135  C         23.2640  -10.5680   15.5170 C.2   231  TYR231      0.2290
    136  O         22.3260  -11.2910   15.8510 O.2   231  TYR231     -0.2864
    137  CB        24.1100  -10.7080   17.8820 C.3   231  TYR231      0.0560
    138  CG        23.2310   -9.7060   18.6080 C.ar  231  TYR231     -0.0198
    139  CD1       21.9340   -9.4180   18.1700 C.ar  231  TYR231     -0.0009
    140  CD2       23.6800   -9.0950   19.7740 C.ar  231  TYR231     -0.0009
    141  CE1       21.1070   -8.5490   18.8890 C.ar  231  TYR231      0.0417
    142  CE2       22.8670   -8.2300   20.4980 C.ar  231  TYR231      0.0417
    143  CZ        21.5840   -7.9600   20.0590 C.ar  231  TYR231      0.1957
    144  OH        20.7850   -7.1230   20.8130 O.3   231  TYR231     -0.2866
    145  N         28.5960  -11.5750   18.3790 N.3   252  GLY252     -0.1225
    146  CA        27.9460  -10.7940   19.4160 C.3   252  GLY252      0.1811
    147  C         27.2150  -11.5760   20.4830 C.2   252  GLY252      0.2280
    148  O         26.9500  -11.0540   21.5700 O.2   252  GLY252     -0.2866
    149  N         28.6640  -11.2650   24.2290 N.3   255  MET255     -0.1230
    150  CA        28.3970  -10.1160   25.0850 C.3   255  MET255      0.1702
    151  C         26.9450  -10.1130   25.5510 C.2   255  MET255      0.2592
    152  O         26.6720   -9.9540   26.7440 O.2   255  MET255     -0.2718
    153  CB        28.7110   -8.8030   24.3510 C.3   255  MET255      0.0401
    154  CG        28.6130   -7.5520   25.2400 C.3   255  MET255      0.0596
    155  SD        28.9010   -5.9900   24.3420 S.3   255  MET255     -0.1393
    156  CE        28.7440   -4.8080   25.6960 C.3   255  MET255      0.0692
    157  N         26.0250  -10.3010   24.6080 N.am  256  LEU256     -0.1980
    158  CA        24.5870  -10.3170   24.9020 C.3   256  LEU256      0.1596
    159  C         24.2170  -11.2650   26.0410 C.2   256  LEU256      0.2287
    160  O         23.4940  -10.8860   26.9700 O.2   256  LEU256     -0.2864
    161  CB        23.7950  -10.7050   23.6430 C.3   256  LEU256      0.0297
    162  CG        22.3240  -11.1180   23.7950 C.3   256  LEU256      0.0022
    163  CD1       21.5200   -9.9540   24.3500 C.3   256  LEU256      0.0001
    164  CD2       21.7650  -11.5450   22.4480 C.3   256  LEU256      0.0001
    165  N         26.3390  -10.4540   29.4160 N.3   259  GLN259     -0.1245
    166  CA        25.8370   -9.2050   29.9750 C.3   259  GLN259      0.1566
    167  C         24.6470   -9.5810   30.8700 C.2   259  GLN259      0.2260
    168  O         24.5090   -9.0940   31.9940 O.2   259  GLN259     -0.2867
    169  CB        25.3920   -8.2750   28.8380 C.3   259  GLN259      0.0367
    170  CG        24.5170   -7.1160   29.2660 C.3   259  GLN259      0.0905
    171  CD        23.0750   -7.5230   29.5070 C.2   259  GLN259      0.2608
    172  OE1       22.5190   -7.2700   30.5770 O.2   259  GLN259     -0.2717
    173  NE2       22.4580   -8.1570   28.5080 N.am  259  GLN259     -0.0878
@<TRIPOS>BOND
     1   109   110    1
     2    99    97    1
     3   111   112    2
     4   111   110    1
     5   110   113    1
     6    48    47    1
     7   104   103    2
     8   100    98    1
     9    97    98    1
    10    97    94    1
    11    45    44    1
    12    45    46    1
    13    95    94    1
    14    95    96    2
    15   103   102    1
    16    94    93    1
    17    69    68    2
    18   101   102    1
    19    44    43    1
    20    72    71    1
    21    47    46    2
    22    47    49    1
    23   113   115    1
    24   113   114    1
    25    68    67    1
    26    70    71    1
    27    70    67    1
    28   116   114    1
    29   102   105    1
    30    89    88    2
    31    71    73    1
    32    67    66    1
    33    93    88   am
    34    43    40    1
    35    42    41    2
    36    88    87    1
    37    40    41    1
    38    40    39    1
    39   105   106    1
    40    41    50   am
    41   106   107    1
    42   132   130    1
    43    84    83    1
    44    39    33   am
    45    90    87    1
    46    90    91    1
    47    87    86    1
    48    56    54    1
    49   108   107    1
    50    34    33    2
    51    50    51    1
    52    33    32    1
    53    51    54    1
    54    51    52    1
    55    86    92    1
    56    86    81   am
    57   131   129    1
    58    83    85    1
    59    83    80    1
    60    92    91    1
    61    54    55    1
    62   130   129    1
    63    81    82    2
    64    81    80    1
    65   129   126    1
    66    52    53    2
    67    32    31    1
    68    32    35    1
    69    80    79    1
    70   135   136    2
    71   135   134    1
    72    38    36   am
    73    36    35    1
    74    36    37    2
    75    79    76   am
    76   126   127    1
    77   126   125    1
    78   133   127   am
    79   133   134    1
    80   127   128    2
    81   134   137    1
    82     9    10    1
    83   125   119   am
    84    10    11    1
    85    76    77    2
    86    76    75    1
    87    74    75    1
    88   137   138    1
    89   117   118    1
    90   139   138   ar
    91   139   141   ar
    92    65    64    1
    93    75    78    1
    94   119   120    2
    95   119   118    1
    96   145   146    1
    97    11    13   am
    98    11    12    2
    99    57    58    1
   100   138   140   ar
   101    61    62    1
   102    61    58    1
   103   141   143   ar
   104    13    14    1
   105   118   121    1
   106    64    63    1
   107    62    63    1
   108   146   147    1
   109    58    59    1
   110   121   122    1
   111    17    14    1
   112   140   142   ar
   113   143   142   ar
   114   143   144    1
   115    14    15    1
   116    59    60    2
   117    18    15   am
   118    18    19    1
   119   147   148    2
   120   122   123    1
   121   122   124    1
   122    15    16    2
   123    19    20    1
   124    30    27    1
   125    20    22   am
   126    20    21    2
   127   164   162    1
   128    22    23    1
   129    26    27    1
   130    26    24   am
   131    27    28    1
   132    28    29    2
   133   161   162    1
   134   161   158    1
   135   162   163    1
   136    23    24    1
   137   149   150    1
   138    24    25    2
   139   155   154    1
   140   155   156    1
   141   153   150    1
   142   153   154    1
   143   157   158    1
   144   157   151   am
   145   158   159    1
   146   150   151    1
   147   151   152    2
   148   159   160    2
   149     7     6   ar
   150   173   171   am
   151     4     3    2
   152     6     5    1
   153     6     8   ar
   154   169   170    1
   155   169   166    1
   156     5     2    1
   157   170   171    1
   158   165   166    1
   159   171   172    2
   160     3     2    1
   161     2     1    1
   162   166   167    1
   163   167   168    2
