@<TRIPOS>MOLECULE
tmp/1nvtB00.pdb
 182 171 0 0 0
SMALL
GASTEIGER

@<TRIPOS>ATOM
      1  N         -7.7170   -7.5370   50.2630 N.3    72  ILE72      -0.1245
      2  CA        -7.4050   -7.0060   51.5940 C.3    72  ILE72       0.1561
      3  C         -5.9470   -6.5440   51.6800 C.2    72  ILE72       0.2260
      4  O         -5.0400   -7.2720   51.2900 O.2    72  ILE72      -0.2867
      5  CB        -7.6360   -8.0800   52.6890 C.3    72  ILE72       0.0252
      6  CG1       -9.1230   -8.4060   52.7930 C.3    72  ILE72       0.0019
      7  CG2       -7.0880   -7.5980   54.0300 C.3    72  ILE72       0.0019
      8  CD1       -9.4190   -9.5500   53.7600 C.3    72  ILE72       0.0001
      9  N         -8.9420   -2.5480   49.2350 N.3    75  LYS75      -0.1245
     10  CA       -10.1940   -2.3570   48.5130 C.3    75  LYS75       0.1561
     11  C        -10.8600   -0.9860   48.6090 C.2    75  LYS75       0.2260
     12  O        -11.6890   -0.6350   47.7540 O.2    75  LYS75      -0.2867
     13  CB       -11.1950   -3.4470   48.9040 C.3    75  LYS75       0.0271
     14  CG       -10.7380   -4.8430   48.5240 C.3    75  LYS75       0.0035
     15  CD       -11.9020   -5.8170   48.5070 C.3    75  LYS75       0.0206
     16  CE       -11.4640   -7.1540   47.9530 C.3    75  LYS75       0.1093
     17  NZ       -12.5990   -8.1040   47.7570 N.3    75  LYS75      -0.1314
     18  N        -17.2630   -8.2690   42.7620 N.3   111  ASP111     -0.1239
     19  CA       -17.6420   -9.1330   43.8810 C.3   111  ASP111      0.1674
     20  C        -19.1400   -9.3890   43.9690 C.2   111  ASP111      0.2266
     21  O        -19.5780  -10.5390   44.0180 O.2   111  ASP111     -0.2867
     22  CB       -17.1650   -8.5160   45.2000 C.3   111  ASP111      0.1410
     23  CG       -15.6950   -8.7500   45.4510 C.2   111  ASP111      0.3668
     24  OD1      -15.0820   -7.9500   46.1890 O.co2 111  ASP111     -0.2456
     25  OD2      -15.1540   -9.7440   44.9140 O.co2 111  ASP111     -0.2456
     26  N        -21.4670  -10.5940   58.2790 N.3   135  GLY135     -0.1210
     27  CA       -20.2600   -9.8250   58.0450 C.3   135  GLY135      0.1956
     28  C        -20.5490   -8.4190   57.5520 C.2   135  GLY135      0.2612
     29  O        -21.6960   -8.0930   57.2430 O.2   135  GLY135     -0.2717
     30  N        -19.5090   -7.5890   57.4740 N.am  136  ALA136     -0.1965
     31  CA       -19.6560   -6.2080   57.0280 C.3   136  ALA136      0.1728
     32  C        -18.4160   -5.6620   56.3120 C.2   136  ALA136      0.2617
     33  O        -18.2650   -4.4460   56.1710 O.2   136  ALA136     -0.2715
     34  CB       -19.9980   -5.3210   58.2130 C.3   136  ALA136      0.0334
     35  N        -17.5380   -6.5530   55.8580 N.am  137  GLY137     -0.1940
     36  CA       -16.3370   -6.1210   55.1610 C.3   137  GLY137      0.2014
     37  C        -16.6050   -5.7300   53.7170 C.2   137  GLY137      0.2639
     38  O        -17.7430   -5.4160   53.3570 O.2   137  GLY137     -0.2714
     39  N        -15.5660   -5.7480   52.8850 N.am  138  GLY138     -0.1939
     40  CA       -15.7320   -5.3860   51.4850 C.3   138  GLY138      0.2014
     41  C        -16.6650   -6.3420   50.7610 C.2   138  GLY138      0.2638
     42  O        -17.4960   -5.9230   49.9440 O.2   138  GLY138     -0.2714
     43  N        -16.5280   -7.6320   51.0630 N.am  139  ALA139     -0.1977
     44  CA       -17.3580   -8.6640   50.4460 C.3   139  ALA139      0.1597
     45  C        -18.8240   -8.4750   50.8410 C.2   139  ALA139      0.2287
     46  O        -19.7090   -8.3820   49.9810 O.2   139  ALA139     -0.2864
     47  CB       -16.8710  -10.0530   50.8690 C.3   139  ALA139      0.0319
     48  N        -23.5950   -8.8080   62.1160 N.3   157  ASN157     -0.1225
     49  CA       -22.1610   -8.6580   62.3700 C.3   157  ASN157      0.1785
     50  C        -21.8320   -8.5950   63.8550 C.2   157  ASN157      0.2597
     51  O        -22.6670   -8.1840   64.6600 O.2   157  ASN157     -0.2718
     52  CB       -21.6430   -7.3830   61.7060 C.3   157  ASN157      0.1169
     53  CG       -20.1380   -7.3830   61.5580 C.2   157  ASN157      0.2627
     54  OD1      -19.5020   -6.3270   61.4990 O.2   157  ASN157     -0.2716
     55  ND2      -19.5580   -8.5770   61.4820 N.am  157  ASN157     -0.0877
     56  N        -20.6120   -8.9810   64.2220 N.am  158  ARG158     -0.1966
     57  CA       -20.2250   -8.9400   65.6310 C.3   158  ARG158      0.1729
     58  C        -20.2630   -7.4950   66.1310 C.2   158  ARG158      0.2616
     59  O        -20.6170   -7.2370   67.2830 O.2   158  ARG158     -0.2715
     60  CB       -18.8290   -9.5430   65.8390 C.3   158  ARG158      0.0348
     61  CG       -17.6760   -8.6930   65.3580 C.3   158  ARG158      0.0492
     62  CD       -16.3610   -9.4180   65.5940 C.3   158  ARG158      0.2205
     63  NE       -15.2430   -8.7440   64.9440 N.pl3 158  ARG158     -0.0865
     64  CZ       -14.0190   -9.2530   64.8350 C.cat 158  ARG158      0.5346
     65  NH1      -13.7500  -10.4500   65.3330 N.pl3 158  ARG158      0.1354
     66  NH2      -13.0630   -8.5660   64.2230 N.pl3 158  ARG158      0.1354
     67  N        -19.9080   -6.5590   65.2540 N.am  159  THR159     -0.1951
     68  CA       -19.9240   -5.1350   65.5820 C.3   159  THR159      0.1897
     69  C        -21.2520   -4.5780   65.0790 C.2   159  THR159      0.2313
     70  O        -21.3140   -3.9290   64.0350 O.2   159  THR159     -0.2863
     71  CB       -18.7680   -4.3900   64.8820 C.3   159  THR159      0.1794
     72  OG1      -17.5210   -4.9860   65.2640 O.3   159  THR159     -0.2208
     73  CG2      -18.7610   -2.9160   65.2690 C.3   159  THR159      0.0378
     74  N        -21.8000   -1.3280   63.3610 N.3   162  LYS162     -0.1245
     75  CA       -21.0860   -1.3550   62.0890 C.3   162  LYS162      0.1561
     76  C        -22.0260   -1.9330   61.0330 C.2   162  LYS162      0.2260
     77  O        -22.0090   -1.5110   59.8750 O.2   162  LYS162     -0.2867
     78  CB       -19.8250   -2.2180   62.1920 C.3   162  LYS162      0.0271
     79  CG       -19.0000   -2.2490   60.9170 C.3   162  LYS162      0.0035
     80  CD       -17.7180   -3.0480   61.1100 C.3   162  LYS162      0.0206
     81  CE       -16.8360   -2.9800   59.8740 C.3   162  LYS162      0.1093
     82  NZ       -15.5160   -3.6160   60.1210 N.3   162  LYS162     -0.1314
     83  N        -24.7440  -11.5420   65.5360 N.3   187  LEU187     -0.1245
     84  CA       -24.4960  -12.8760   64.9930 C.3   187  LEU187      0.1561
     85  C        -25.4450  -13.9640   65.4880 C.2   187  LEU187      0.2260
     86  O        -25.2420  -15.1480   65.1890 O.2   187  LEU187     -0.2867
     87  CB       -23.0620  -13.3100   65.3050 C.3   187  LEU187      0.0270
     88  CG       -21.9150  -12.4170   64.8280 C.3   187  LEU187      0.0019
     89  CD1      -20.5930  -13.0560   65.2380 C.3   187  LEU187      0.0001
     90  CD2      -21.9780  -12.2410   63.3150 C.3   187  LEU187      0.0001
     91  N        -19.9620  -14.0460   54.9370 N.3   200  ALA200     -0.1231
     92  CA       -18.9940  -13.1040   54.3920 C.3   200  ALA200      0.1694
     93  C        -17.9870  -12.7330   55.4900 C.2   200  ALA200      0.2593
     94  O        -17.7430  -11.5520   55.7440 O.2   200  ALA200     -0.2718
     95  CB       -19.7040  -11.8510   53.8790 C.3   200  ALA200      0.0304
     96  N        -17.4270  -13.7460   56.1510 N.am  201  THR201     -0.1940
     97  CA       -16.4290  -13.5390   57.2050 C.3   201  THR201      0.2013
     98  C        -15.3530  -14.6050   57.0360 C.2   201  THR201      0.2484
     99  O        -15.5770  -15.6260   56.3790 O.2   201  THR201     -0.2729
    100  CB       -17.0100  -13.7000   58.6320 C.3   201  THR201      0.1807
    101  OG1      -17.2340  -15.0920   58.8970 O.3   201  THR201     -0.2208
    102  CG2      -18.3190  -12.9270   58.7780 C.3   201  THR201      0.0379
    103  N        -14.1660  -14.3810   57.6290 N.am  202  PRO202     -0.2715
    104  CA       -13.0560  -15.3360   57.5360 C.3   202  PRO202      0.1536
    105  C        -13.2320  -16.5700   58.4230 C.2   202  PRO202      0.2598
    106  O        -12.4790  -17.5450   58.2920 O.2   202  PRO202     -0.2715
    107  CB       -11.8440  -14.5110   57.9650 C.3   202  PRO202      0.0310
    108  CG       -12.2810  -13.0790   57.7750 C.3   202  PRO202      0.0237
    109  CD       -13.7090  -13.1070   58.2110 C.3   202  PRO202      0.0939
    110  N        -14.2130  -16.5350   59.3250 N.am  203  ILE203     -0.1978
    111  CA       -14.4500  -17.6660   60.2260 C.3   203  ILE203      0.1596
    112  C        -14.5290  -18.9990   59.4840 C.2   203  ILE203      0.2287
    113  O        -15.4400  -19.2150   58.6780 O.2   203  ILE203     -0.2864
    114  CB       -15.7590  -17.5010   61.0160 C.3   203  ILE203      0.0276
    115  CG1      -15.7240  -16.2080   61.8260 C.3   203  ILE203      0.0022
    116  CG2      -15.9630  -18.7050   61.9330 C.3   203  ILE203      0.0022
    117  CD1      -16.9750  -15.9770   62.6450 C.3   203  ILE203      0.0001
    118  N        -12.0610  -20.1570   57.5150 N.3   205  MET205     -0.1245
    119  CA       -11.1170  -20.1390   56.4000 C.3   205  MET205      0.1570
    120  C         -9.7260  -20.6300   56.7970 C.2   205  MET205      0.2261
    121  O         -9.2900  -20.4490   57.9400 O.2   205  MET205     -0.2867
    122  CB       -11.0070  -18.7220   55.8210 C.3   205  MET205      0.0387
    123  CG        -9.8630  -18.5380   54.8300 C.3   205  MET205      0.0595
    124  SD        -9.8800  -16.9370   53.9740 S.3   205  MET205     -0.1393
    125  CE       -10.6290  -17.4790   52.4190 C.3   205  MET205      0.0692
    126  N        -18.6230  -17.8160   51.5660 N.3   229  LEU229     -0.1231
    127  CA       -17.7430  -17.1900   50.5750 C.3   229  LEU229      0.1693
    128  C        -16.3200  -17.7440   50.6180 C.2   229  LEU229      0.2592
    129  O        -15.4760  -17.3880   49.7920 O.2   229  LEU229     -0.2718
    130  CB       -17.7080  -15.6750   50.7620 C.3   229  LEU229      0.0284
    131  CG       -19.0160  -14.9420   50.4630 C.3   229  LEU229      0.0019
    132  CD1      -18.7310  -13.4550   50.2610 C.3   229  LEU229      0.0001
    133  CD2      -19.6570  -15.5230   49.2070 C.3   229  LEU229      0.0001
    134  N        -16.0570  -18.6260   51.5760 N.am  230  ILE230     -0.1966
    135  CA       -14.7360  -19.2290   51.7060 C.3   230  ILE230      0.1727
    136  C        -14.6140  -20.3960   50.7330 C.2   230  ILE230      0.2616
    137  O        -15.5440  -21.1970   50.5940 O.2   230  ILE230     -0.2715
    138  CB       -14.5250  -19.7270   53.1370 C.3   230  ILE230      0.0290
    139  CG1      -14.4760  -18.5250   54.0730 C.3   230  ILE230      0.0022
    140  CG2      -13.2680  -20.5860   53.2280 C.3   230  ILE230      0.0023
    141  CD1      -14.6150  -18.8950   55.5300 C.3   230  ILE230      0.0001
    142  N        -13.4790  -20.4920   50.0470 N.am  231  TYR231     -0.1974
    143  CA       -13.2930  -21.5860   49.0980 C.3   231  TYR231      0.1639
    144  C        -12.1250  -22.4740   49.4910 C.2   231  TYR231      0.2290
    145  O        -11.8910  -23.5160   48.8760 O.2   231  TYR231     -0.2864
    146  CB       -13.1130  -21.0410   47.6690 C.3   231  TYR231      0.0560
    147  CG       -12.1550  -19.8840   47.5840 C.ar  231  TYR231     -0.0198
    148  CD1      -10.7770  -20.0880   47.6180 C.ar  231  TYR231     -0.0009
    149  CD2      -12.6270  -18.5760   47.5320 C.ar  231  TYR231     -0.0009
    150  CE1       -9.8940  -19.0210   47.6090 C.ar  231  TYR231      0.0417
    151  CE2      -11.7560  -17.5030   47.5210 C.ar  231  TYR231      0.0417
    152  CZ       -10.3930  -17.7330   47.5610 C.ar  231  TYR231      0.1957
    153  OH        -9.5360  -16.6690   47.5650 O.3   231  TYR231     -0.2866
    154  N        -17.3010  -20.9950   48.2910 N.3   252  GLY252     -0.1225
    155  CA       -16.9010  -19.7730   47.6120 C.3   252  GLY252      0.1811
    156  C        -16.2520  -19.9190   46.2490 C.2   252  GLY252      0.2280
    157  O        -15.7780  -18.9370   45.6830 O.2   252  GLY252     -0.2866
    158  N        -18.1960  -17.7740   43.4770 N.3   255  MET255     -0.1230
    159  CA       -17.9960  -16.3300   43.5750 C.3   255  MET255      0.1702
    160  C        -16.6010  -15.9670   43.0830 C.2   255  MET255      0.2592
    161  O        -16.4330  -15.0110   42.3230 O.2   255  MET255     -0.2718
    162  CB       -18.1660  -15.8340   45.0080 C.3   255  MET255      0.0401
    163  CG       -18.0830  -14.3020   45.1110 C.3   255  MET255      0.0596
    164  SD       -18.0910  -13.6740   46.8100 S.3   255  MET255     -0.1393
    165  CE       -17.8990  -11.8980   46.5290 C.3   255  MET255      0.0692
    166  N        -15.6060  -16.7380   43.5180 N.am  256  LEU256     -0.1980
    167  CA       -14.2200  -16.5220   43.1200 C.3   256  LEU256      0.1596
    168  C        -14.0550  -16.5710   41.6010 C.2   256  LEU256      0.2287
    169  O        -13.4170  -15.7030   40.9960 O.2   256  LEU256     -0.2864
    170  CB       -13.3250  -17.5870   43.7400 C.3   256  LEU256      0.0297
    171  CG       -11.8310  -17.4610   43.4270 C.3   256  LEU256      0.0022
    172  CD1      -11.2940  -16.1520   43.9900 C.3   256  LEU256      0.0001
    173  CD2      -11.0810  -18.6500   44.0260 C.3   256  LEU256      0.0001
    174  N        -16.3950  -13.8710   39.7720 N.3   259  GLN259     -0.1245
    175  CA       -15.8790  -12.5490   40.0530 C.3   259  GLN259      0.1566
    176  C        -14.6470  -12.3290   39.1700 C.2   259  GLN259      0.2260
    177  O        -14.4330  -11.2330   38.6380 O.2   259  GLN259     -0.2867
    178  CB       -15.5110  -12.4620   41.5370 C.3   259  GLN259      0.0367
    179  CG       -14.5960  -11.3350   41.8790 C.3   259  GLN259      0.0905
    180  CD       -13.1400  -11.7110   41.7590 C.2   259  GLN259      0.2608
    181  OE1      -12.2670  -10.8410   41.7910 O.2   259  GLN259     -0.2717
    182  NE2      -12.8620  -13.0080   41.6400 N.am  259  GLN259     -0.0878
@<TRIPOS>BOND
     1   177   176    2
     2   176   175    1
     3   174   175    1
     4   175   178    1
     5   169   168    2
     6   178   179    1
     7   168   167    1
     8   182   180   am
     9   180   181    2
    10   180   179    1
    11   161   160    2
    12    18    19    1
    13   160   166   am
    14   160   159    1
    15   167   166    1
    16   167   170    1
    17   171   170    1
    18   171   172    1
    19   171   173    1
    20   158   159    1
    21   159   162    1
    22    19    20    1
    23    19    22    1
    24    20    21    2
    25    25    23   ar
    26   162   163    1
    27   163   164    1
    28    22    23    1
    29    23    24   ar
    30   157   156    2
    31   156   155    1
    32   165   164    1
    33   151   149   ar
    34   151   152   ar
    35   149   147   ar
    36   152   153    1
    37   152   150   ar
    38   147   148   ar
    39   147   146    1
    40   150   148   ar
    41   155   154    1
    42   146   143    1
    43    12    11    2
    44    17    16    1
    45    16    15    1
    46    15    14    1
    47    10    11    1
    48    10    13    1
    49    10     9    1
    50    14    13    1
    51   145   144    2
    52   143   144    1
    53   143   142    1
    54   133   131    1
    55   129   128    2
    56    42    41    2
    57    46    45    2
    58   142   136   am
    59   132   131    1
    60     1     2    1
    61    44    45    1
    62    44    47    1
    63    44    43    1
    64   131   130    1
    65   127   128    1
    66   127   130    1
    67   127   126    1
    68   137   136    2
    69   128   134   am
    70   136   135    1
    71    41    43   am
    72    41    40    1
    73     4     3    2
    74    40    39    1
    75   134   135    1
    76     2     3    1
    77     2     5    1
    78   135   138    1
    79   125   124    1
    80     5     6    1
    81     5     7    1
    82     6     8    1
    83    39    37   am
    84   138   140    1
    85   138   139    1
    86    38    37    2
    87    37    36    1
    88    95    92    1
    89   124   123    1
    90   139   141    1
    91    92    91    1
    92    92    93    1
    93   123   122    1
    94    36    35    1
    95    93    94    2
    96    93    96   am
    97   122   119    1
    98    35    32   am
    99    96    97    1
   100    33    32    2
   101    32    31    1
   102    99    98    2
   103   119   120    1
   104   119   118    1
   105   120   121    2
   106    31    30    1
   107    31    34    1
   108    98    97    1
   109    98   103   am
   110    97   100    1
   111    29    28    2
   112    30    28   am
   113   104   103    1
   114   104   107    1
   115   104   105    1
   116    28    27    1
   117   103   109    1
   118   108   107    1
   119   108   109    1
   120    27    26    1
   121   106   105    2
   122   105   110   am
   123   100   102    1
   124   100   101    1
   125   113   112    2
   126   110   111    1
   127   112   111    1
   128    81    82    1
   129    81    80    1
   130    77    76    2
   131   111   114    1
   132    79    80    1
   133    79    78    1
   134   114   115    1
   135   114   116    1
   136    76    75    1
   137    55    53   am
   138    54    53    2
   139    53    52    1
   140    52    49    1
   141   115   117    1
   142    75    78    1
   143    75    74    1
   144    48    49    1
   145    49    50    1
   146    90    88    1
   147    50    56   am
   148    50    51    2
   149    70    69    2
   150    56    57    1
   151    66    64    1
   152    88    89    1
   153    88    87    1
   154    64    63    2
   155    64    65    1
   156    71    72    1
   157    71    73    1
   158    71    68    1
   159    63    62    1
   160    84    87    1
   161    84    85    1
   162    84    83    1
   163    69    68    1
   164    86    85    2
   165    67    68    1
   166    67    58   am
   167    61    62    1
   168    61    60    1
   169    57    60    1
   170    57    58    1
   171    58    59    2
