@<TRIPOS>MOLECULE
tmp/1nw4A00.pdb
 159 153 0 0 0
SMALL
GASTEIGER

@<TRIPOS>ATOM
      1  N          6.7180   -2.5780   86.2030 N.3    21  GLY21      -0.1225
      2  CA         7.6050   -3.0830   87.2390 C.3    21  GLY21       0.1811
      3  C          7.1310   -4.3030   88.0120 C.2    21  GLY21       0.2280
      4  O          7.9110   -5.2240   88.2670 O.2    21  GLY21      -0.2866
      5  N          9.5790   -5.7700   84.8590 N.3    62  HIS62      -0.1226
      6  CA        11.0190   -5.5910   85.0340 C.3    62  HIS62       0.1752
      7  C         11.5200   -5.5570   86.4710 C.2    62  HIS62       0.2597
      8  O         12.7240   -5.5120   86.7050 O.2    62  HIS62      -0.2718
      9  CB        11.4720   -4.3210   84.3020 C.3    62  HIS62       0.0759
     10  CG        10.7810   -3.0720   84.7580 C.ar   62  HIS62       0.0818
     11  ND1       10.1350   -2.2200   83.8860 N.ar   62  HIS62      -0.2268
     12  CD2       10.6620   -2.5130   85.9850 C.ar   62  HIS62       0.1154
     13  CE1        9.6500   -1.1900   84.5570 C.ar   62  HIS62       0.1986
     14  NE2        9.9560   -1.3430   85.8330 N.ar   62  HIS62      -0.2212
     15  N         10.6020   -5.5780   87.4310 N.am   63  GLY63      -0.1942
     16  CA        10.9960   -5.5450   88.8290 C.3    63  GLY63       0.2014
     17  C         11.4220   -4.1610   89.2770 C.2    63  GLY63       0.2638
     18  O         11.5630   -3.2690   88.4520 O.2    63  GLY63      -0.2714
     19  N         11.6250   -3.9800   90.5800 N.am   64  VAL64      -0.1977
     20  CA        12.0500   -2.6920   91.1340 C.3    64  VAL64       0.1596
     21  C         13.5660   -2.5490   91.0190 C.2    64  VAL64       0.2287
     22  O         14.3010   -3.4520   91.4240 O.2    64  VAL64      -0.2864
     23  CB        11.6790   -2.5660   92.6440 C.3    64  VAL64       0.0276
     24  CG1       12.0920   -1.1980   93.1800 C.3    64  VAL64       0.0022
     25  CG2       10.1940   -2.7690   92.8420 C.3    64  VAL64       0.0022
     26  N          7.6550    1.9450   78.9420 N.3    86  ARG86      -0.1245
     27  CA         7.4600    1.5800   80.3290 C.3    86  ARG86       0.1563
     28  C          6.3060    2.3730   80.8900 C.2    86  ARG86       0.2260
     29  O          6.1670    3.5680   80.6370 O.2    86  ARG86      -0.2867
     30  CB         8.7080    1.8760   81.1470 C.3    86  ARG86       0.0307
     31  CG         8.4490    1.9770   82.6540 C.3    86  ARG86       0.0489
     32  CD         9.7550    2.3020   83.3810 C.3    86  ARG86       0.2205
     33  NE         9.5080    2.9450   84.6720 N.pl3  86  ARG86      -0.0865
     34  CZ         8.7550    2.4170   85.6270 C.cat  86  ARG86       0.5346
     35  NH1        8.1780    1.2320   85.4450 N.pl3  86  ARG86       0.1354
     36  NH2        8.5500    3.0870   86.7490 N.pl3  86  ARG86       0.1354
     37  N          4.5770    3.6640   88.1090 N.3    89  SER89      -0.1202
     38  CA         4.1810    4.7320   89.0050 C.3    89  SER89       0.2020
     39  C          5.3980    5.5750   89.3530 C.2    89  SER89       0.2619
     40  O          6.5270    5.2020   89.0500 O.2    89  SER89      -0.2717
     41  CB         3.5830    4.1430   90.2790 C.3    89  SER89       0.2103
     42  OG         4.5200    3.2910   90.9080 O.3    89  SER89      -0.2182
     43  N          5.1610    6.7060   90.0070 N.am   90  CYS90      -0.1955
     44  CA         6.2370    7.6050   90.3870 C.3    90  CYS90       0.1843
     45  C          5.7550    8.5340   91.4820 C.2    90  CYS90       0.2626
     46  O          4.6140    8.4420   91.9360 O.2    90  CYS90      -0.2714
     47  CB         6.6580    8.4500   89.1870 C.3    90  CYS90       0.0997
     48  SG         5.3250    9.5070   88.5710 S.3    90  CYS90      -0.0797
     49  N          6.6430    9.4270   91.9010 N.am   91  GLY91      -0.1954
     50  CA         6.3010   10.4050   92.9080 C.3    91  GLY91       0.1869
     51  C          6.4040   11.7740   92.2580 C.2    91  GLY91       0.2309
     52  O          7.0750   11.9420   91.2410 O.2    91  GLY91      -0.2863
     53  N         16.1940    7.5310   90.2870 N.3   155  SER155     -0.1217
     54  CA        17.1770    7.3380   91.3450 C.3   155  SER155      0.1889
     55  C         17.1270    5.9580   91.9690 C.2   155  SER155      0.2288
     56  O         16.0610    5.4540   92.3140 O.2   155  SER155     -0.2866
     57  CB        16.9930    8.3740   92.4560 C.3   155  SER155      0.2089
     58  OG        17.8050    8.0270   93.5710 O.3   155  SER155     -0.2183
     59  N         17.9770    5.1960   94.8070 N.3   157  MET157     -0.1230
     60  CA        17.6850    5.2770   96.2250 C.3   157  MET157      0.1702
     61  C         16.2380    5.6750   96.5250 C.2   157  MET157      0.2592
     62  O         15.8140    6.8010   96.2300 O.2   157  MET157     -0.2718
     63  CB        18.6430    6.2640   96.8980 C.3   157  MET157      0.0401
     64  CG        18.4260    6.4140   98.4000 C.3   157  MET157      0.0596
     65  SD        19.6290    7.4910   99.2200 S.3   157  MET157     -0.1393
     66  CE        19.0410    9.1130   98.6820 C.3   157  MET157      0.0692
     67  N         15.4910    4.7440   97.1190 N.am  158  TYR158     -0.1976
     68  CA        14.0970    4.9850   97.4830 C.3   158  TYR158      0.1639
     69  C         14.0570    5.5830   98.8900 C.2   158  TYR158      0.2290
     70  O         13.4890    6.6490   99.1140 O.2   158  TYR158     -0.2864
     71  CB        13.3170    3.6750   97.4580 C.3   158  TYR158      0.0560
     72  CG        11.8180    3.8350   97.5890 C.ar  158  TYR158     -0.0198
     73  CD1       11.0360    4.1850   96.4890 C.ar  158  TYR158     -0.0009
     74  CD2       11.1760    3.6170   98.8100 C.ar  158  TYR158     -0.0009
     75  CE1        9.6470    4.3060   96.5950 C.ar  158  TYR158      0.0417
     76  CE2        9.7930    3.7390   98.9290 C.ar  158  TYR158      0.0417
     77  CZ         9.0350    4.0800   97.8180 C.ar  158  TYR158      0.1957
     78  OH         7.6690    4.1810   97.9280 O.3   158  TYR158     -0.2866
     79  N         16.9370   15.1270   95.2660 N.3   168  LEU168     -0.1245
     80  CA        15.5610   15.3540   94.8330 C.3   168  LEU168      0.1561
     81  C         15.1140   16.7990   94.8680 C.2   168  LEU168      0.2260
     82  O         14.4040   17.2470   93.9650 O.2   168  LEU168     -0.2867
     83  CB        14.5880   14.4900   95.6370 C.3   168  LEU168      0.0270
     84  CG        14.6060   12.9850   95.3270 C.3   168  LEU168      0.0019
     85  CD1       13.4810   12.2860   96.0850 C.3   168  LEU168      0.0001
     86  CD2       14.4380   12.7560   93.8360 C.3   168  LEU168      0.0001
     87  N          9.6510   11.4680   89.8390 N.3   179  VAL179     -0.1231
     88  CA        10.7500   10.6310   90.3130 C.3   179  VAL179      0.1692
     89  C         10.3350    9.1570   90.3860 C.2   179  VAL179      0.2592
     90  O          9.2870    8.8230   90.9340 O.2   179  VAL179     -0.2718
     91  CB        11.2500   11.0880   91.7290 C.3   179  VAL179      0.0266
     92  CG1       10.1160   11.0190   92.7410 C.3   179  VAL179      0.0020
     93  CG2       12.4110   10.2110   92.1970 C.3   179  VAL179      0.0020
     94  N         11.1400    8.2870   89.7870 N.am  180  GLU180     -0.1966
     95  CA        10.9000    6.8520   89.8430 C.3   180  GLU180      0.1733
     96  C         12.2390    6.1090   89.7880 C.2   180  GLU180      0.2616
     97  O         13.2750    6.7100   90.0710 O.2   180  GLU180     -0.2715
     98  CB         9.9070    6.3890   88.7590 C.3   180  GLU180      0.0429
     99  CG        10.1040    6.9330   87.3740 C.3   180  GLU180      0.1163
    100  CD        11.2430    6.2750   86.6560 C.2   180  GLU180      0.3649
    101  OE1       12.3190    6.8930   86.5820 O.co2 180  GLU180     -0.2457
    102  OE2       11.0610    5.1380   86.1730 O.co2 180  GLU180     -0.2457
    103  N         12.2450    4.8300   89.4220 N.am  181  MET181     -0.1963
    104  CA        13.4980    4.0790   89.4550 C.3   181  MET181      0.1736
    105  C         13.9750    3.2960   88.2350 C.2   181  MET181      0.2616
    106  O         14.9450    2.5410   88.3520 O.2   181  MET181     -0.2715
    107  CB        13.4540    3.1050   90.6390 C.3   181  MET181      0.0427
    108  CG        13.2320    3.7490   91.9980 C.3   181  MET181      0.0599
    109  SD        12.8760    2.5300   93.2990 S.3   181  MET181     -0.1393
    110  CE        14.4910    1.8110   93.5360 C.3   181  MET181      0.0692
    111  N         13.3420    3.4490   87.0750 N.am  182  GLU182     -0.1977
    112  CA        13.7830    2.6580   85.9280 C.3   182  GLU182      0.1602
    113  C         13.9150    3.3520   84.5650 C.2   182  GLU182      0.2287
    114  O         14.6820    2.9070   83.7140 O.2   182  GLU182     -0.2864
    115  CB        12.8540    1.4470   85.7560 C.3   182  GLU182      0.0415
    116  CG        12.8530    0.4040   86.8840 C.3   182  GLU182      0.1163
    117  CD        11.9950    0.7910   88.0660 C.2   182  GLU182      0.3649
    118  OE1       11.0050    1.5230   87.8760 O.co2 182  GLU182     -0.2457
    119  OE2       12.2920    0.3440   89.1910 O.co2 182  GLU182     -0.2457
    120  N          1.9580    8.3250   92.8530 N.3   204  ASP204     -0.1239
    121  CA         1.4120    7.7200   94.0720 C.3   204  ASP204      0.1674
    122  C          1.7800    8.4910   95.3320 C.2   204  ASP204      0.2266
    123  O          1.4890    8.0540   96.4440 O.2   204  ASP204     -0.2867
    124  CB         1.8500    6.2570   94.2120 C.3   204  ASP204      0.1410
    125  CG         3.3540    6.0910   94.4040 C.2   204  ASP204      0.3668
    126  OD1        4.1020    7.0960   94.4040 O.co2 204  ASP204     -0.2456
    127  OD2        3.7840    4.9290   94.5580 O.co2 204  ASP204     -0.2456
    128  N          7.6040   12.3020   97.6690 N.3   207  PRO207     -0.2116
    129  CA         8.6170   11.9910   98.6830 C.3   207  PRO207      0.1372
    130  C          8.9800   13.1640   99.6020 C.2   207  PRO207      0.2244
    131  O          9.5400   12.9670  100.6790 O.2   207  PRO207     -0.2868
    132  CB         9.8000   11.5010   97.8480 C.3   207  PRO207      0.0268
    133  CG         9.6340   12.2580   96.5560 C.3   207  PRO207      0.0207
    134  CD         8.1520   12.1360   96.3100 C.3   207  PRO207      0.0892
    135  N          6.2110   12.5550  102.3280 N.3   210  TRP210     -0.1241
    136  CA         5.8550   11.2070  102.7530 C.3   210  TRP210      0.1605
    137  C          5.5610   11.2250  104.2460 C.2   210  TRP210      0.2264
    138  O          4.6500   10.5520  104.7170 O.2   210  TRP210     -0.2867
    139  CB         6.9950   10.2210  102.4830 C.3   210  TRP210      0.0550
    140  CG         7.0660    9.6890  101.0810 C.ar  210  TRP210      0.0003
    141  CD1        6.1270    9.8190  100.0970 C.ar  210  TRP210      0.0946
    142  CD2        8.1210    8.8930  100.5250 C.ar  210  TRP210      0.0152
    143  NE1        6.5300    9.1520   98.9640 N.ar  210  TRP210     -0.2442
    144  CE2        7.7510    8.5750   99.1990 C.ar  210  TRP210      0.0810
    145  CE3        9.3440    8.4160  101.0190 C.ar  210  TRP210      0.0012
    146  CZ2        8.5610    7.7990   98.3610 C.ar  210  TRP210      0.0191
    147  CZ3       10.1500    7.6430  100.1850 C.ar  210  TRP210      0.0001
    148  CH2        9.7530    7.3450   98.8710 C.ar  210  TRP210      0.0015
    149  N          1.0380    9.8240  100.3760 N.3   215  PHE215     -0.1241
    150  CA         1.3860    8.6030   99.6760 C.3   215  PHE215      0.1605
    151  C          0.1600    7.7050   99.5960 C.2   215  PHE215      0.2264
    152  O         -0.7050    7.7540  100.4580 O.2   215  PHE215     -0.2867
    153  CB         2.5080    7.8810  100.4330 C.3   215  PHE215      0.0534
    154  CG         2.9500    6.5970   99.7890 C.ar  215  PHE215     -0.0203
    155  CD1        3.7590    6.6090   98.6600 C.ar  215  PHE215     -0.0042
    156  CD2        2.5380    5.3700  100.3040 C.ar  215  PHE215     -0.0042
    157  CE1        4.1530    5.4210   98.0520 C.ar  215  PHE215     -0.0003
    158  CE2        2.9260    4.1750   99.7020 C.ar  215  PHE215     -0.0003
    159  CZ         3.7350    4.1980   98.5730 C.ar  215  PHE215     -0.0000
@<TRIPOS>BOND
     1    26    27    1
     2    27    28    1
     3    27    30    1
     4    29    28    2
     5    30    31    1
     6    31    32    1
     7    32    33    1
     8   114   113    2
     9    11    13   ar
    10    11    10   ar
    11     9    10    1
    12     9     6    1
    13    13    14   ar
    14   113   112    1
    15    33    34    2
    16    10    12   ar
    17     5     6    1
    18     6     7    1
    19    35    34    1
    20    34    36    1
    21   115   112    1
    22   115   116    1
    23    14    12   ar
    24   112   111    1
    25   102   100   ar
    26     1     2    1
    27     7     8    2
    28     7    15   am
    29   101   100   ar
    30   100    99    1
    31   116   117    1
    32   111   105   am
    33     2     3    1
    34    99    98    1
    35    15    16    1
    36   118   117   ar
    37     3     4    2
    38   117   119   ar
    39    37    38    1
    40   105   106    2
    41   105   104    1
    42    18    17    2
    43    48    47    1
    44    98    95    1
    45    16    17    1
    46    38    39    1
    47    38    41    1
    48    40    39    2
    49    47    44    1
    50    17    19   am
    51    39    43   am
    52   103   104    1
    53   103    96   am
    54   104   107    1
    55    94    95    1
    56    94    89   am
    57    96    95    1
    58    96    97    2
    59    87    88    1
    60    43    44    1
    61    41    42    1
    62    53    54    1
    63    88    89    1
    64    88    91    1
    65    89    90    2
    66    44    45    1
    67    19    20    1
    68   107   108    1
    69    21    20    1
    70    21    22    2
    71    20    23    1
    72    52    51    2
    73    54    55    1
    74    54    57    1
    75    45    49   am
    76    45    46    2
    77    91    93    1
    78    91    92    1
    79    49    50    1
    80    55    56    2
    81   108   109    1
    82    51    50    1
    83    57    58    1
    84    23    25    1
    85    23    24    1
    86   120   121    1
    87   109   110    1
    88    86    84    1
    89    82    81    2
    90   121   124    1
    91   121   122    1
    92   124   125    1
    93   125   126   ar
    94   125   127   ar
    95    59    60    1
    96    80    81    1
    97    80    79    1
    98    80    83    1
    99    84    83    1
   100    84    85    1
   101   122   123    2
   102    60    61    1
   103    60    63    1
   104    62    61    2
   105   134   133    1
   106   134   128    1
   107    73    75   ar
   108    73    72   ar
   109    61    67   am
   110   133   132    1
   111    75    77   ar
   112    63    64    1
   113    67    68    1
   114    71    68    1
   115    71    72    1
   116    68    69    1
   117    72    74   ar
   118   128   129    1
   119    77    78    1
   120    77    76   ar
   121   132   129    1
   122   157   159   ar
   123   157   155   ar
   124   146   148   ar
   125   146   144   ar
   126    64    65    1
   127   159   158   ar
   128   155   154   ar
   129    66    65    1
   130   129   130    1
   131    74    76   ar
   132   148   147   ar
   133    69    70    2
   134   143   144   ar
   135   143   141   ar
   136   144   142   ar
   137   151   150    1
   138   151   152    2
   139   130   131    2
   140   150   149    1
   141   150   153    1
   142   158   156   ar
   143   154   156   ar
   144   154   153    1
   145   141   140   ar
   146   147   145   ar
   147   142   145   ar
   148   142   140   ar
   149   140   139    1
   150   135   136    1
   151   139   136    1
   152   136   137    1
   153   137   138    2
