@<TRIPOS>MOLECULE
tmp/1nw6A00.pdb
 168 168 0 0 0
SMALL
GASTEIGER

@<TRIPOS>ATOM
      1  N         20.6190   26.8460   -9.3400 N.3    10  CYS10      -0.1221
      2  CA        20.6410   28.2570   -8.9880 C.3    10  CYS10       0.1808
      3  C         21.4500   28.5220   -7.7280 C.2    10  CYS10       0.2601
      4  O         21.8250   27.5900   -7.0120 O.2    10  CYS10      -0.2717
      5  CB        19.2130   28.8140   -8.8340 C.3    10  CYS10       0.0970
      6  SG        18.0540   27.8760   -7.7930 S.3    10  CYS10      -0.0800
      7  N         21.7330   29.8010   -7.4850 N.am   11  ASP11      -0.1959
      8  CA        22.4890   30.2290   -6.3140 C.3    11  ASP11       0.1840
      9  C         21.6360   30.0180   -5.0720 C.2    11  ASP11       0.2622
     10  O         20.4070   30.1570   -5.1240 O.2    11  ASP11      -0.2715
     11  CB        22.9000   31.7000   -6.4690 C.3    11  ASP11       0.1450
     12  CG        23.6050   32.2530   -5.2320 C.2    11  ASP11       0.3671
     13  OD1       22.9150   32.6900   -4.2830 O.co2  11  ASP11      -0.2456
     14  OD2       24.8520   32.2390   -5.2010 O.co2  11  ASP11      -0.2456
     15  N         22.2880   29.6730   -3.9620 N.am   12  CYS12      -0.1968
     16  CA        21.5830   29.3810   -2.7130 C.3    12  CYS12       0.1712
     17  C         20.7250   30.5420   -2.2130 C.2    12  CYS12       0.2296
     18  O         19.6320   30.3280   -1.6810 O.2    12  CYS12      -0.2864
     19  CB        22.5800   28.9550   -1.6250 C.3    12  CYS12       0.0983
     20  SG        23.7580   30.2370   -1.1290 S.3    12  CYS12      -0.0798
     21  N         25.9220   21.2560    3.3730 N.3    30  ASP30      -0.1225
     22  CA        27.3150   20.8700    3.1690 C.3    30  ASP30       0.1790
     23  C         27.8400   21.8950    2.1750 C.2    30  ASP30       0.2440
     24  O         27.9840   21.6290    0.9830 O.2    30  ASP30      -0.2733
     25  CB        27.3530   19.4520    2.6060 C.3    30  ASP30       0.1423
     26  CG        28.7440   18.9810    2.3320 C.2    30  ASP30       0.3668
     27  OD1       29.6810   19.5070    2.9730 O.co2  30  ASP30      -0.2456
     28  OD2       28.8920   18.0800    1.4830 O.co2  30  ASP30      -0.2456
     29  N         28.1240   23.1060    2.6780 N.am   31  PRO31      -0.2718
     30  CA        28.5990   24.2700    1.9400 C.3    31  PRO31       0.1520
     31  C         30.0440   24.3090    1.4960 C.2    31  PRO31       0.2440
     32  O         30.9090   23.6090    2.0240 O.2    31  PRO31      -0.2731
     33  CB        28.3260   25.4000    2.9180 C.3    31  PRO31       0.0310
     34  CG        28.8220   24.7630    4.2060 C.3    31  PRO31       0.0237
     35  CD        28.1940   23.3630    4.1310 C.3    31  PRO31       0.0939
     36  N         30.3080   25.1300    0.4750 N.am   32  PRO32      -0.2716
     37  CA        31.6850   25.2650    0.0110 C.3    32  PRO32       0.1536
     38  C         32.3310   26.0550    1.1550 C.2    32  PRO32       0.2598
     39  O         31.6260   26.7840    1.8550 O.2    32  PRO32      -0.2715
     40  CB        31.5380   26.0880   -1.2670 C.3    32  PRO32       0.0310
     41  CG        30.3030   26.9170   -1.0020 C.3    32  PRO32       0.0237
     42  CD        29.3780   25.9160   -0.3570 C.3    32  PRO32       0.0939
     43  N         33.6260   25.9070    1.3880 N.am   33  TYR33      -0.1974
     44  CA        34.2320   26.6290    2.4960 C.3    33  TYR33       0.1639
     45  C         35.2080   27.7160    2.0720 C.2    33  TYR33       0.2290
     46  O         36.1470   28.0560    2.7970 O.2    33  TYR33      -0.2864
     47  CB        34.8630   25.6380    3.4810 C.3    33  TYR33       0.0560
     48  CG        33.8420   25.1530    4.4970 C.ar   33  TYR33      -0.0198
     49  CD1       33.4060   25.9940    5.5280 C.ar   33  TYR33      -0.0009
     50  CD2       33.2780   23.8760    4.4060 C.ar   33  TYR33      -0.0009
     51  CE1       32.4300   25.5770    6.4490 C.ar   33  TYR33       0.0417
     52  CE2       32.2950   23.4470    5.3280 C.ar   33  TYR33       0.0417
     53  CZ        31.8800   24.3060    6.3410 C.ar   33  TYR33       0.1957
     54  OH        30.9000   23.9110    7.2330 O.3    33  TYR33      -0.2866
     55  N         34.0470   32.9130   -3.7970 N.3    36  MET36      -0.1245
     56  CA        34.4850   33.0280   -5.1890 C.3    36  MET36       0.1570
     57  C         35.2670   34.3190   -5.4000 C.2    36  MET36       0.2261
     58  O         35.0740   35.2930   -4.6760 O.2    36  MET36      -0.2867
     59  CB        33.2810   33.0340   -6.1370 C.3    36  MET36       0.0387
     60  CG        32.3810   31.8190   -6.0310 C.3    36  MET36       0.0595
     61  SD        33.2970   30.3230   -6.3740 S.3    36  MET36      -0.1393
     62  CE        32.9780   30.1330   -8.1790 C.3    36  MET36       0.0692
     63  N         30.1320   36.2800    3.6680 N.3    49  TRP49      -0.1241
     64  CA        29.2580   35.7050    2.6540 C.3    49  TRP49       0.1605
     65  C         28.3030   34.6840    3.2690 C.2    49  TRP49       0.2264
     66  O         27.0960   34.7430    3.0600 O.2    49  TRP49      -0.2867
     67  CB        30.0940   35.0230    1.5610 C.3    49  TRP49       0.0550
     68  CG        29.2760   34.1360    0.6510 C.ar   49  TRP49       0.0003
     69  CD1       28.3230   34.5340   -0.2390 C.ar   49  TRP49       0.0946
     70  CD2       29.2940   32.7020    0.6030 C.ar   49  TRP49       0.0152
     71  NE1       27.7410   33.4390   -0.8330 N.ar   49  TRP49      -0.2442
     72  CE2       28.3190   32.3030   -0.3360 C.ar   49  TRP49       0.0810
     73  CE3       30.0380   31.7180    1.2650 C.ar   49  TRP49       0.0012
     74  CZ2       28.0660   30.9560   -0.6320 C.ar   49  TRP49       0.0191
     75  CZ3       29.7850   30.3800    0.9720 C.ar   49  TRP49       0.0001
     76  CH2       28.8060   30.0150    0.0300 C.ar   49  TRP49       0.0015
     77  N         27.5750   20.3380    7.6150 N.3    70  PHE70      -0.1227
     78  CA        28.7950   19.5470    7.5120 C.3    70  PHE70       0.1736
     79  C         29.9980   20.4730    7.4240 C.2    70  PHE70       0.2596
     80  O         29.9220   21.5470    6.8260 O.2    70  PHE70      -0.2718
     81  CB        28.7920   18.6590    6.2600 C.3    70  PHE70       0.0547
     82  CG        27.8540   17.4880    6.3280 C.ar   70  PHE70      -0.0202
     83  CD1       26.4820   17.6630    6.1990 C.ar   70  PHE70      -0.0042
     84  CD2       28.3560   16.1920    6.4380 C.ar   70  PHE70      -0.0042
     85  CE1       25.6180   16.5570    6.1680 C.ar   70  PHE70      -0.0003
     86  CE2       27.5070   15.0850    6.4080 C.ar   70  PHE70      -0.0003
     87  CZ        26.1320   15.2700    6.2700 C.ar   70  PHE70      -0.0000
     88  N         31.1130   20.0540    8.0090 N.am   71  GLY71      -0.1957
     89  CA        32.3060   20.8740    7.9580 C.3    71  GLY71       0.1869
     90  C         33.4520   20.2530    8.7340 C.2    71  GLY71       0.2309
     91  O         33.2630   19.3110    9.5080 O.2    71  GLY71      -0.2863
     92  N         35.1990   14.1720   10.1770 N.3   122  GLU122     -0.1245
     93  CA        34.5270   15.3410    9.6380 C.3   122  GLU122      0.1567
     94  C         33.4110   15.6340   10.6430 C.2   122  GLU122      0.2260
     95  O         32.9340   14.7130   11.2980 O.2   122  GLU122     -0.2867
     96  CB        33.9300   15.0250    8.2650 C.3   122  GLU122      0.0388
     97  CG        33.4160   16.2370    7.5260 C.3   122  GLU122      0.1160
     98  CD        32.7910   15.8790    6.1910 C.2   122  GLU122      0.3649
     99  OE1       33.3420   15.0120    5.4850 O.co2 122  GLU122     -0.2457
    100  OE2       31.7550   16.4770    5.8500 O.co2 122  GLU122     -0.2457
    101  N         30.2150   13.2350   -8.5870 N.3   188  HIS188     -0.1227
    102  CA        30.5160   14.4120   -7.7750 C.3   188  HIS188      0.1737
    103  C         31.7110   14.1300   -6.8670 C.2   188  HIS188      0.2438
    104  O         31.7310   13.1340   -6.1420 O.2   188  HIS188     -0.2733
    105  CB        29.2950   14.8060   -6.9450 C.3   188  HIS188      0.0758
    106  CG        29.3350   16.2170   -6.4530 C.ar  188  HIS188      0.0818
    107  ND1       30.2310   16.6480   -5.4980 N.ar  188  HIS188     -0.2268
    108  CD2       28.5990   17.3010   -6.7950 C.ar  188  HIS188      0.1154
    109  CE1       30.0430   17.9370   -5.2730 C.ar  188  HIS188      0.1986
    110  NE2       29.0580   18.3570   -6.0480 N.ar  188  HIS188     -0.2212
    111  N         32.7230   15.0100   -6.8940 N.am  189  PRO189     -0.2718
    112  CA        33.9490   14.8900   -6.0960 C.3   189  PRO189      0.1535
    113  C         33.7720   14.7850   -4.5780 C.2   189  PRO189      0.2599
    114  O         34.5560   14.1010   -3.9200 O.2   189  PRO189     -0.2715
    115  CB        34.7590   16.1200   -6.5180 C.3   189  PRO189      0.0310
    116  CG        33.7080   17.1080   -6.9090 C.3   189  PRO189      0.0237
    117  CD        32.7470   16.2490   -7.6910 C.3   189  PRO189      0.0939
    118  N         32.7670   15.4470   -4.0120 N.am  190  THR190     -0.1951
    119  CA        32.5790   15.3840   -2.5630 C.3   190  THR190      0.1897
    120  C         31.2580   14.7230   -2.1730 C.2   190  THR190      0.2313
    121  O         30.6770   15.0420   -1.1320 O.2   190  THR190     -0.2863
    122  CB        32.6470   16.7960   -1.9210 C.3   190  THR190      0.1794
    123  OG1       31.6990   17.6660   -2.5520 O.3   190  THR190     -0.2208
    124  CG2       34.0430   17.3820   -2.0610 C.3   190  THR190      0.0378
    125  N         20.3400   23.4260   -0.3630 N.3   214  PHE214     -0.1227
    126  CA        20.7170   24.4170   -1.3700 C.3   214  PHE214      0.1736
    127  C         22.1760   24.3630   -1.8400 C.2   214  PHE214      0.2595
    128  O         22.6460   25.2620   -2.5340 O.2   214  PHE214     -0.2718
    129  CB        20.3150   25.8410   -0.9330 C.3   214  PHE214      0.0547
    130  CG        20.6000   26.1650    0.5060 C.ar  214  PHE214     -0.0202
    131  CD1       21.8910   26.4720    0.9270 C.ar  214  PHE214     -0.0042
    132  CD2       19.5640   26.2190    1.4290 C.ar  214  PHE214     -0.0042
    133  CE1       22.1480   26.8350    2.2550 C.ar  214  PHE214     -0.0003
    134  CE2       19.8120   26.5830    2.7670 C.ar  214  PHE214     -0.0003
    135  CZ        21.1020   26.8900    3.1760 C.ar  214  PHE214     -0.0000
    136  N         22.8860   23.3150   -1.4340 N.am  215  PHE215     -0.1976
    137  CA        24.2480   23.0270   -1.9030 C.3   215  PHE215      0.1639
    138  C         24.1830   21.5210   -2.2110 C.2   215  PHE215      0.2290
    139  O         25.0600   20.7400   -1.8460 O.2   215  PHE215     -0.2864
    140  CB        25.3140   23.2830   -0.8230 C.3   215  PHE215      0.0560
    141  CG        25.4420   24.7310   -0.3890 C.ar  215  PHE215     -0.0200
    142  CD1       25.7840   25.7270   -1.2970 C.ar  215  PHE215     -0.0042
    143  CD2       25.2540   25.0850    0.9440 C.ar  215  PHE215     -0.0042
    144  CE1       25.9400   27.0540   -0.8880 C.ar  215  PHE215     -0.0003
    145  CE2       25.4070   26.4160    1.3690 C.ar  215  PHE215     -0.0003
    146  CZ        25.7500   27.4010    0.4560 C.ar  215  PHE215     -0.0000
    147  N         24.8110   19.4070   -4.4770 N.3   217  GLY217     -0.1225
    148  CA        25.8840   18.5550   -4.9820 C.3   217  GLY217      0.1811
    149  C         25.4580   17.3640   -5.8390 C.2   217  GLY217      0.2280
    150  O         25.0880   17.5290   -6.9970 O.2   217  GLY217     -0.2866
    151  N         21.4920   23.5220   -6.6160 N.3   236  ASP236     -0.1225
    152  CA        22.9430   23.6630   -6.6380 C.3   236  ASP236      0.1805
    153  C         23.2700   24.6460   -7.7460 C.2   236  ASP236      0.2598
    154  O         22.5270   24.7250   -8.7210 O.2   236  ASP236     -0.2718
    155  CB        23.6020   22.3040   -6.9150 C.3   236  ASP236      0.1424
    156  CG        25.1000   22.3050   -6.6390 C.2   236  ASP236      0.3668
    157  OD1       25.8680   22.8440   -7.4650 O.co2 236  ASP236     -0.2456
    158  OD2       25.5070   21.7700   -5.5870 O.co2 236  ASP236     -0.2456
    159  N         24.3530   25.4030   -7.5920 N.am  237  ALA237     -0.1966
    160  CA        24.7340   26.3890   -8.6040 C.3   237  ALA237      0.1728
    161  C         25.3460   25.7650   -9.8580 C.2   237  ALA237      0.2616
    162  O         25.3820   26.4130  -10.9070 O.2   237  ALA237     -0.2715
    163  CB        25.7140   27.4070   -8.0090 C.3   237  ALA237      0.0334
    164  N         25.8230   24.5260   -9.7650 N.am  238  ALA238     -0.1977
    165  CA        26.4640   23.8760  -10.9170 C.3   238  ALA238      0.1597
    166  C         25.4610   23.2520  -11.8780 C.2   238  ALA238      0.2287
    167  O         24.6000   22.4820  -11.4720 O.2   238  ALA238     -0.2864
    168  CB        27.4590   22.8040  -10.4400 C.3   238  ALA238      0.0319
@<TRIPOS>BOND
     1   166   167    2
     2   166   165    1
     3   165   168    1
     4   165   164    1
     5   162   161    2
     6   161   164   am
     7   161   160    1
     8     1     2    1
     9     2     5    1
    10     2     3    1
    11     5     6    1
    12   154   153    2
    13   160   163    1
    14   160   159    1
    15   101   102    1
    16    62    61    1
    17   102   105    1
    18   102   103    1
    19   153   159   am
    20   153   152    1
    21     3     7   am
    22     3     4    2
    23   117   116    1
    24   117   111    1
    25     7     8    1
    26   157   156   ar
    27   150   149    2
    28   105   106    1
    29   155   156    1
    30   155   152    1
    31   116   115    1
    32   111   103   am
    33   111   112    1
    34   103   104    2
    35   108   106   ar
    36   108   110   ar
    37   156   158   ar
    38   152   151    1
    39   115   112    1
    40    11     8    1
    41    11    12    1
    42   106   107   ar
    43    61    60    1
    44     8     9    1
    45    59    60    1
    46    59    56    1
    47   112   113    1
    48   110   109   ar
    49   149   148    1
    50   107   109   ar
    51    57    56    1
    52    57    58    2
    53    12    14   ar
    54    12    13   ar
    55    56    55    1
    56    10     9    2
    57     9    15   am
    58   148   147    1
    59   113   118   am
    60   113   114    2
    61   118   119    1
    62    15    16    1
    63    16    17    1
    64    16    19    1
    65   119   120    1
    66   119   122    1
    67   123   122    1
    68   128   127    2
    69    17    18    2
    70   138   137    1
    71   138   139    2
    72   120   121    2
    73   124   122    1
    74   137   136    1
    75   137   140    1
    76   127   136   am
    77   127   126    1
    78    19    20    1
    79   126   129    1
    80   126   125    1
    81   142   144   ar
    82   142   141   ar
    83    40    41    1
    84    40    37    1
    85    41    42    1
    86   129   130    1
    87   144   146   ar
    88    71    72   ar
    89    71    69   ar
    90   140   141    1
    91    74    72   ar
    92    74    76   ar
    93   141   143   ar
    94    42    36    1
    95    72    70   ar
    96    69    68   ar
    97    37    36    1
    98    37    38    1
    99    76    75   ar
   100   146   145   ar
   101    36    31   am
   102   130   131   ar
   103   130   132   ar
   104    70    68   ar
   105    70    73   ar
   106    68    67    1
   107   131   133   ar
   108   143   145   ar
   109    75    73   ar
   110    24    23    2
   111    38    43   am
   112    38    39    2
   113    43    44    1
   114   132   134   ar
   115    28    26   ar
   116    31    30    1
   117    31    32    2
   118    67    64    1
   119    30    29    1
   120    30    33    1
   121    45    44    1
   122    45    46    2
   123    23    29   am
   124    23    22    1
   125   133   135   ar
   126    26    25    1
   127    26    27   ar
   128    44    47    1
   129    25    22    1
   130    64    65    1
   131    64    63    1
   132    29    35    1
   133   134   135   ar
   134    33    34    1
   135    66    65    2
   136    22    21    1
   137    47    48    1
   138    35    34    1
   139    50    48   ar
   140    50    52   ar
   141    48    49   ar
   142    52    53   ar
   143    99    98   ar
   144    49    51   ar
   145   100    98   ar
   146    85    83   ar
   147    85    87   ar
   148    98    97    1
   149    83    82   ar
   150    81    82    1
   151    81    78    1
   152    87    86   ar
   153    82    84   ar
   154    53    51   ar
   155    53    54    1
   156    86    84   ar
   157    80    79    2
   158    79    78    1
   159    79    88   am
   160    78    77    1
   161    97    96    1
   162    89    88    1
   163    89    90    1
   164    96    93    1
   165    90    91    2
   166    93    92    1
   167    93    94    1
   168    94    95    2
