@<TRIPOS>MOLECULE
tmp/1nw7A00.pdb
 170 167 0 0 0
SMALL
GASTEIGER

@<TRIPOS>ATOM
      1  N         20.7950   26.9710   -9.1010 N.3    10  CYS10      -0.1221
      2  CA        20.6950   28.3430   -8.6140 C.3    10  CYS10       0.1808
      3  C         21.7610   28.6420   -7.5770 C.2    10  CYS10       0.2601
      4  O         22.3330   27.7380   -6.9650 O.2    10  CYS10      -0.2717
      5  CB        19.3560   28.5940   -7.9000 C.3    10  CYS10       0.0970
      6  SG        17.8540   27.8630   -8.5760 S.3    10  CYS10      -0.0800
      7  N         22.0020   29.9310   -7.3830 N.am   11  ASP11      -0.1959
      8  CA        22.9030   30.3970   -6.3470 C.3    11  ASP11       0.1840
      9  C         22.0970   30.2480   -5.0620 C.2    11  ASP11       0.2622
     10  O         20.8750   30.4400   -5.0860 O.2    11  ASP11      -0.2715
     11  CB        23.2700   31.8640   -6.5870 C.3    11  ASP11       0.1450
     12  CG        23.8900   32.5200   -5.3590 C.2    11  ASP11       0.3671
     13  OD1       23.1360   32.9880   -4.4800 O.co2  11  ASP11      -0.2456
     14  OD2       25.1310   32.5550   -5.2670 O.co2  11  ASP11      -0.2456
     15  N         22.7520   29.9080   -3.9540 N.am   12  CYS12      -0.1968
     16  CA        22.0380   29.6760   -2.7000 C.3    12  CYS12       0.1712
     17  C         21.1500   30.8360   -2.2650 C.2    12  CYS12       0.2296
     18  O         20.0170   30.6180   -1.8300 O.2    12  CYS12      -0.2864
     19  CB        23.0130   29.3120   -1.5670 C.3    12  CYS12       0.0983
     20  SG        24.1700   30.6030   -1.0870 S.3    12  CYS12      -0.0798
     21  N         26.3150   21.4800    3.4010 N.3    30  ASP30      -0.1225
     22  CA        27.7040   21.0650    3.1940 C.3    30  ASP30       0.1790
     23  C         28.2750   22.0600    2.1740 C.2    30  ASP30       0.2440
     24  O         28.4840   21.7390    1.0050 O.2    30  ASP30      -0.2733
     25  CB        27.6930   19.6370    2.6580 C.3    30  ASP30       0.1423
     26  CG        29.0700   19.0970    2.3910 C.2    30  ASP30       0.3668
     27  OD1       30.0310   19.5600    3.0350 O.co2  30  ASP30      -0.2456
     28  OD2       29.1800   18.1930    1.5390 O.co2  30  ASP30      -0.2456
     29  N         28.5450   23.2880    2.6330 N.am   31  PRO31      -0.2718
     30  CA        29.0550   24.4470    1.8980 C.3    31  PRO31       0.1520
     31  C         30.5150   24.4570    1.5270 C.2    31  PRO31       0.2440
     32  O         31.3360   23.7630    2.1200 O.2    31  PRO31      -0.2731
     33  CB        28.7590   25.5790    2.8580 C.3    31  PRO31       0.0310
     34  CG        29.2440   24.9560    4.1510 C.3    31  PRO31       0.0237
     35  CD        28.6550   23.5390    4.0860 C.3    31  PRO31       0.0939
     36  N         30.8560   25.2650    0.5180 N.am   32  PRO32      -0.2716
     37  CA        32.2590   25.3590    0.1210 C.3    32  PRO32       0.1536
     38  C         32.8730   26.1800    1.2520 C.2    32  PRO32       0.2598
     39  O         32.1420   26.9240    1.9160 O.2    32  PRO32      -0.2715
     40  CB        32.1880   26.1390   -1.1810 C.3    32  PRO32       0.0310
     41  CG        31.0360   27.0830   -0.9200 C.3    32  PRO32       0.0237
     42  CD        30.0140   26.1770   -0.2760 C.3    32  PRO32       0.0939
     43  N         34.1680   26.0610    1.5080 N.am   33  TYR33      -0.1974
     44  CA        34.7350   26.8330    2.6080 C.3    33  TYR33       0.1639
     45  C         35.7530   27.8680    2.1580 C.2    33  TYR33       0.2290
     46  O         36.7600   28.1250    2.8250 O.2    33  TYR33      -0.2864
     47  CB        35.3180   25.8940    3.6630 C.3    33  TYR33       0.0560
     48  CG        34.2770   25.4580    4.6650 C.ar   33  TYR33      -0.0198
     49  CD1       33.8360   26.3310    5.6670 C.ar   33  TYR33      -0.0009
     50  CD2       33.6910   24.1960    4.5870 C.ar   33  TYR33      -0.0009
     51  CE1       32.8290   25.9550    6.5690 C.ar   33  TYR33       0.0417
     52  CE2       32.6840   23.8070    5.4810 C.ar   33  TYR33       0.0417
     53  CZ        32.2590   24.6900    6.4660 C.ar   33  TYR33       0.1957
     54  OH        31.2560   24.3100    7.3340 O.3    33  TYR33      -0.2866
     55  N         34.8660   33.0040   -3.8260 N.3    36  MET36      -0.1245
     56  CA        35.4490   33.0860   -5.1550 C.3    36  MET36       0.1570
     57  C         36.0900   34.4520   -5.3870 C.2    36  MET36       0.2261
     58  O         35.7810   35.4160   -4.6820 O.2    36  MET36      -0.2867
     59  CB        34.3770   32.7950   -6.2020 C.3    36  MET36       0.0387
     60  CG        33.8420   31.3730   -6.1150 C.3    36  MET36       0.0595
     61  SD        32.4240   31.1210   -7.1880 S.3    36  MET36      -0.1393
     62  CE        33.2400   31.0410   -8.8130 C.3    36  MET36       0.0692
     63  N         30.8030   36.5180    3.6560 N.3    49  TRP49      -0.1241
     64  CA        30.0220   35.9400    2.5660 C.3    49  TRP49       0.1605
     65  C         29.0070   34.9290    3.1030 C.2    49  TRP49       0.2264
     66  O         27.8440   34.9280    2.7210 O.2    49  TRP49      -0.2867
     67  CB        30.9650   35.2360    1.5810 C.3    49  TRP49       0.0550
     68  CG        30.2710   34.3430    0.6010 C.ar   49  TRP49       0.0003
     69  CD1       29.5750   34.7290   -0.5060 C.ar   49  TRP49       0.0946
     70  CD2       30.1610   32.9130    0.6660 C.ar   49  TRP49       0.0152
     71  NE1       29.0370   33.6310   -1.1350 N.ar   49  TRP49      -0.2442
     72  CE2       29.3810   32.5040   -0.4360 C.ar   49  TRP49       0.0810
     73  CE3       30.6460   31.9390    1.5490 C.ar   49  TRP49       0.0012
     74  CZ2       29.0710   31.1580   -0.6820 C.ar   49  TRP49       0.0191
     75  CZ3       30.3390   30.6000    1.3060 C.ar   49  TRP49       0.0001
     76  CH2       29.5580   30.2240    0.1980 C.ar   49  TRP49       0.0015
     77  N         28.0440   20.6360    7.6870 N.3    70  PHE70      -0.1227
     78  CA        29.2700   19.8540    7.5810 C.3    70  PHE70       0.1736
     79  C         30.4680   20.7820    7.4610 C.2    70  PHE70       0.2596
     80  O         30.3770   21.8530    6.8570 O.2    70  PHE70      -0.2718
     81  CB        29.2620   18.9580    6.3320 C.3    70  PHE70       0.0547
     82  CG        28.3050   17.8030    6.4030 C.ar   70  PHE70      -0.0202
     83  CD1       26.9370   18.0060    6.2930 C.ar   70  PHE70      -0.0042
     84  CD2       28.7820   16.5010    6.5420 C.ar   70  PHE70      -0.0042
     85  CE1       26.0480   16.9250    6.3130 C.ar   70  PHE70      -0.0003
     86  CE2       27.9070   15.4110    6.5630 C.ar   70  PHE70      -0.0003
     87  CZ        26.5370   15.6230    6.4470 C.ar   70  PHE70      -0.0000
     88  N         31.5960   20.3470    8.0120 N.am   71  GLY71      -0.1957
     89  CA        32.8050   21.1370    7.9460 C.3    71  GLY71       0.1869
     90  C         33.9040   20.4980    8.7680 C.2    71  GLY71       0.2309
     91  O         33.6640   19.5200    9.4790 O.2    71  GLY71      -0.2863
     92  N         35.6500   14.4740   10.2940 N.3   122  GLU122     -0.1245
     93  CA        35.0500   15.6960    9.7970 C.3   122  GLU122      0.1567
     94  C         33.8300   15.9330   10.6920 C.2   122  GLU122      0.2260
     95  O         33.3110   14.9810   11.2700 O.2   122  GLU122     -0.2867
     96  CB        34.6970   15.5750    8.3060 C.3   122  GLU122      0.0388
     97  CG        33.3010   15.1220    7.9480 C.3   122  GLU122      0.1160
     98  CD        32.9840   15.4190    6.4830 C.2   122  GLU122      0.3649
     99  OE1       33.6170   14.8000    5.6030 O.co2 122  GLU122     -0.2457
    100  OE2       32.1180   16.2840    6.2130 O.co2 122  GLU122     -0.2457
    101  N         30.4170   13.4920   -8.4610 N.3   188  HIS188     -0.1241
    102  CA        30.7680   14.6560   -7.6540 C.3   188  HIS188      0.1621
    103  C         31.9810   14.3460   -6.7750 C.2   188  HIS188      0.2264
    104  O         31.9750   13.3890   -6.0060 O.2   188  HIS188     -0.2867
    105  CB        29.5820   15.0810   -6.7870 C.3   188  HIS188      0.0745
    106  CG        29.7250   16.4540   -6.2120 C.ar  188  HIS188      0.0817
    107  ND1       30.6540   16.7620   -5.2410 N.ar  188  HIS188     -0.2268
    108  CD2       29.0620   17.6040   -6.4770 C.ar  188  HIS188      0.1154
    109  CE1       30.5550   18.0430   -4.9310 C.ar  188  HIS188      0.1986
    110  NE2       29.5970   18.5770   -5.6670 N.ar  188  HIS188     -0.2212
    111  N         33.1710   15.4850   -3.9600 N.3   190  THR190     -0.1218
    112  CA        33.0140   15.3340   -2.5110 C.3   190  THR190      0.1862
    113  C         31.6570   14.7480   -2.1320 C.2   190  THR190      0.2287
    114  O         31.0950   15.0810   -1.0870 O.2   190  THR190     -0.2866
    115  CB        33.1710   16.6810   -1.7780 C.3   190  THR190      0.1770
    116  OG1       32.1900   17.6050   -2.2650 O.3   190  THR190     -0.2211
    117  CG2       34.5780   17.2530   -1.9860 C.3   190  THR190      0.0375
    118  N         28.6970   12.9380   -0.6180 N.3   192  LYS192     -0.1245
    119  CA        28.4970   12.3850    0.7150 C.3   192  LYS192      0.1561
    120  C         27.7350   11.0610    0.6310 C.2   192  LYS192      0.2260
    121  O         26.8550   10.8940   -0.2130 O.2   192  LYS192     -0.2867
    122  CB        27.7120   13.3750    1.5820 C.3   192  LYS192      0.0271
    123  CG        28.4450   14.6870    1.8400 C.3   192  LYS192      0.0035
    124  CD        27.5640   15.6840    2.5860 C.3   192  LYS192      0.0206
    125  CE        26.4400   16.2380    1.6970 C.3   192  LYS192      0.1093
    126  NZ        26.9670   17.0290    0.5460 N.3   192  LYS192     -0.1314
    127  N         20.7380   23.7280   -0.3780 N.3   214  PHE214     -0.1227
    128  CA        21.1240   24.7090   -1.3970 C.3   214  PHE214      0.1736
    129  C         22.5840   24.6150   -1.8430 C.2   214  PHE214      0.2595
    130  O         23.0990   25.4990   -2.5330 O.2   214  PHE214     -0.2718
    131  CB        20.7680   26.1440   -0.9660 C.3   214  PHE214      0.0547
    132  CG        21.0390   26.4490    0.4830 C.ar  214  PHE214     -0.0202
    133  CD1       22.3230   26.7740    0.9210 C.ar  214  PHE214     -0.0042
    134  CD2       20.0010   26.4540    1.4010 C.ar  214  PHE214     -0.0042
    135  CE1       22.5600   27.1070    2.2610 C.ar  214  PHE214     -0.0003
    136  CE2       20.2240   26.7850    2.7390 C.ar  214  PHE214     -0.0003
    137  CZ        21.5060   27.1130    3.1710 C.ar  214  PHE214     -0.0000
    138  N         23.2400   23.5370   -1.4300 N.am  215  PHE215     -0.1976
    139  CA        24.6010   23.2030   -1.8540 C.3   215  PHE215      0.1639
    140  C         24.5180   21.7000   -2.1490 C.2   215  PHE215      0.2290
    141  O         25.4070   20.9260   -1.8100 O.2   215  PHE215     -0.2864
    142  CB        25.6350   23.4550   -0.7400 C.3   215  PHE215      0.0560
    143  CG        25.8190   24.9170   -0.3630 C.ar  215  PHE215     -0.0200
    144  CD1       26.2140   25.8600   -1.3100 C.ar  215  PHE215     -0.0042
    145  CD2       25.6290   25.3370    0.9530 C.ar  215  PHE215     -0.0042
    146  CE1       26.4200   27.1960   -0.9560 C.ar  215  PHE215     -0.0003
    147  CE2       25.8320   26.6720    1.3200 C.ar  215  PHE215     -0.0003
    148  CZ        26.2300   27.6070    0.3630 C.ar  215  PHE215     -0.0000
    149  N         25.1480   19.6450   -4.3470 N.3   217  GLY217     -0.1225
    150  CA        26.2350   18.8590   -4.9160 C.3   217  GLY217      0.1811
    151  C         25.8250   17.6750   -5.7810 C.2   217  GLY217      0.2280
    152  O         25.4830   17.8510   -6.9500 O.2   217  GLY217     -0.2866
    153  N         21.8470   23.7460   -6.5030 N.3   236  ASP236     -0.1225
    154  CA        23.3020   23.8820   -6.5220 C.3   236  ASP236      0.1805
    155  C         23.6290   24.8290   -7.6750 C.2   236  ASP236      0.2598
    156  O         22.9330   24.8160   -8.6890 O.2   236  ASP236     -0.2718
    157  CB        23.9600   22.5170   -6.7670 C.3   236  ASP236      0.1424
    158  CG        25.4700   22.5420   -6.5430 C.2   236  ASP236      0.3668
    159  OD1       25.9220   22.2090   -5.4270 O.co2 236  ASP236     -0.2456
    160  OD2       26.2060   22.9050   -7.4820 O.co2 236  ASP236     -0.2456
    161  N         24.6740   25.6400   -7.5340 N.am  237  ALA237     -0.1966
    162  CA        25.0170   26.6110   -8.5710 C.3   237  ALA237      0.1728
    163  C         25.6940   26.0080   -9.8020 C.2   237  ALA237      0.2616
    164  O         25.7680   26.6610  -10.8440 O.2   237  ALA237     -0.2715
    165  CB        25.9000   27.7150   -7.9820 C.3   237  ALA237      0.0334
    166  N         26.1730   24.7740   -9.6950 N.am  238  ALA238     -0.1977
    167  CA        26.8630   24.1320  -10.8110 C.3   238  ALA238      0.1597
    168  C         25.9020   23.5000  -11.8180 C.2   238  ALA238      0.2287
    169  O         25.0770   22.6660  -11.4630 O.2   238  ALA238     -0.2864
    170  CB        27.8390   23.0770  -10.2830 C.3   238  ALA238      0.0319
@<TRIPOS>BOND
     1   168   169    2
     2   168   167    1
     3   164   163    2
     4   167   170    1
     5   167   166    1
     6   163   166   am
     7   163   162    1
     8     1     2    1
     9    62    61    1
    10   156   155    2
    11     2     5    1
    12     2     3    1
    13     6     5    1
    14   162   165    1
    15   162   161    1
    16   101   102    1
    17   155   161   am
    18   155   154    1
    19   102   105    1
    20   102   103    1
    21     3     7   am
    22     3     4    2
    23   160   158   ar
    24     7     8    1
    25    61    60    1
    26   152   151    2
    27   105   106    1
    28   103   104    2
    29   157   158    1
    30   157   154    1
    31    11     8    1
    32    11    12    1
    33   158   159   ar
    34   154   153    1
    35   108   106   ar
    36   108   110   ar
    37     8     9    1
    38   106   107   ar
    39    59    60    1
    40    59    56    1
    41   151   150    1
    42   110   109   ar
    43    57    56    1
    44    57    58    2
    45    12    14   ar
    46    12    13   ar
    47   107   109   ar
    48    56    55    1
    49    10     9    2
    50     9    15   am
    51   150   149    1
    52   111   112    1
    53    15    16    1
    54    16    17    1
    55    16    19    1
    56   130   129    2
    57   112   113    1
    58   112   115    1
    59   116   115    1
    60    17    18    2
    61   140   139    1
    62   140   141    2
    63   113   114    2
    64   117   115    1
    65   139   138    1
    66   139   142    1
    67   129   138   am
    68   129   128    1
    69    19    20    1
    70   128   131    1
    71   128   127    1
    72   144   146   ar
    73   144   143   ar
    74    40    41    1
    75    40    37    1
    76    71    69   ar
    77    71    72   ar
    78   131   132    1
    79   146   148   ar
    80    41    42    1
    81   142   143    1
    82    74    72   ar
    83    74    76   ar
    84   118   119    1
    85    69    68   ar
    86    72    70   ar
    87   143   145   ar
    88    42    36    1
    89   121   120    2
    90    37    36    1
    91    37    38    1
    92    76    75   ar
    93   148   147   ar
    94   132   133   ar
    95   132   134   ar
    96    36    31   am
    97   126   125    1
    98    68    70   ar
    99    68    67    1
   100   120   119    1
   101    70    73   ar
   102   119   122    1
   103   133   135   ar
   104   145   147   ar
   105    24    23    2
   106    38    43   am
   107    38    39    2
   108    75    73   ar
   109   134   136   ar
   110    43    44    1
   111    31    30    1
   112    31    32    2
   113    28    26   ar
   114    67    64    1
   115   122   123    1
   116   125   124    1
   117   123   124    1
   118    30    29    1
   119    30    33    1
   120    45    44    1
   121    45    46    2
   122    23    29   am
   123    23    22    1
   124   135   137   ar
   125    26    25    1
   126    26    27   ar
   127    64    65    1
   128    64    63    1
   129    44    47    1
   130    29    35    1
   131    25    22    1
   132    66    65    2
   133   136   137   ar
   134    33    34    1
   135    22    21    1
   136    47    48    1
   137    35    34    1
   138    50    48   ar
   139    50    52   ar
   140    48    49   ar
   141    52    53   ar
   142    99    98   ar
   143    49    51   ar
   144   100    98   ar
   145    83    85   ar
   146    83    82   ar
   147    85    87   ar
   148    81    82    1
   149    81    78    1
   150    82    84   ar
   151    87    86   ar
   152    53    51   ar
   153    53    54    1
   154    98    97    1
   155    84    86   ar
   156    80    79    2
   157    79    78    1
   158    79    88   am
   159    78    77    1
   160    89    88    1
   161    89    90    1
   162    97    96    1
   163    96    93    1
   164    90    91    2
   165    93    92    1
   166    93    94    1
   167    94    95    2
