@<TRIPOS>MOLECULE
tmp/1nweA00.pdb
 110 106 0 0 0
SMALL
GASTEIGER

@<TRIPOS>ATOM
      1  N         36.5080   36.0680   54.5700 N.3    45  TYR45      -0.1227
      2  CA        35.5950   36.6330   55.5670 C.3    45  TYR45       0.1736
      3  C         34.1950   36.0680   55.3570 C.2    45  TYR45       0.2596
      4  O         33.7000   36.0460   54.2300 O.2    45  TYR45      -0.2718
      5  CB        35.5620   38.1640   55.4650 C.3    45  TYR45       0.0548
      6  CG        36.9190   38.8220   55.5860 C.ar   45  TYR45      -0.0200
      7  CD1       37.5340   38.9790   56.8260 C.ar   45  TYR45      -0.0009
      8  CD2       37.5890   39.2840   54.4630 C.ar   45  TYR45      -0.0009
      9  CE1       38.7860   39.5790   56.9380 C.ar   45  TYR45       0.0417
     10  CE2       38.8410   39.8860   54.5670 C.ar   45  TYR45       0.0417
     11  CZ        39.4280   40.0290   55.8020 C.ar   45  TYR45       0.1957
     12  OH        40.6580   40.6250   55.9030 O.3    45  TYR45      -0.2866
     13  N         33.5410   35.5820   56.4220 N.am   46  CYS46      -0.1956
     14  CA        32.2400   34.8960   56.2670 C.3    46  CYS46       0.1843
     15  C         31.1530   35.8080   55.6660 C.2    46  CYS46       0.2625
     16  O         30.3470   35.4020   54.8270 O.2    46  CYS46      -0.2714
     17  CB        31.7700   34.3120   57.6040 C.3    46  CYS46       0.0997
     18  SG        31.9340   35.4460   59.0010 S.3    46  CYS46      -0.0797
     19  N         31.1930   37.0490   56.1300 N.am   47  ASP47      -0.1957
     20  CA        30.2650   38.1250   55.8020 C.3    47  ASP47       0.1840
     21  C         30.6770   38.9730   54.5990 C.2    47  ASP47       0.2621
     22  O         30.2650   40.1210   54.4800 O.2    47  ASP47      -0.2715
     23  CB        30.1530   39.0380   57.0170 C.3    47  ASP47       0.1450
     24  CG        31.5080   39.5720   57.4560 C.2    47  ASP47       0.3671
     25  OD1       32.5590   38.9620   57.1280 O.co2  47  ASP47      -0.2456
     26  OD2       31.5920   40.6090   58.1380 O.co2  47  ASP47      -0.2456
     27  N         31.5090   38.4200   53.7340 N.am   48  VAL48      -0.1977
     28  CA        31.8070   39.0490   52.4430 C.3    48  VAL48       0.1596
     29  C         31.7330   37.9400   51.3940 C.2    48  VAL48       0.2287
     30  O         32.6310   37.1000   51.3020 O.2    48  VAL48      -0.2864
     31  CB        33.1890   39.7520   52.3860 C.3    48  VAL48       0.0276
     32  CG1       33.4730   40.2410   50.9920 C.3    48  VAL48       0.0022
     33  CG2       33.2430   40.9220   53.3470 C.3    48  VAL48       0.0022
     34  N         46.5540   39.5370   55.8240 N.3   119  LYS119     -0.1245
     35  CA        45.3770   39.9530   55.0850 C.3   119  LYS119      0.1561
     36  C         45.2740   39.2700   53.7260 C.2   119  LYS119      0.2260
     37  O         44.2410   39.3500   53.0630 O.2   119  LYS119     -0.2867
     38  CB        45.3900   41.4740   54.9120 C.3   119  LYS119      0.0271
     39  CG        45.2190   42.2470   56.2080 C.3   119  LYS119      0.0035
     40  CD        43.7500   42.3140   56.5890 C.3   119  LYS119      0.0206
     41  CE        43.5710   42.7220   58.0400 C.3   119  LYS119      0.1093
     42  NZ        42.1200   43.0250   58.3300 N.3   119  LYS119     -0.1314
     43  N         43.8720   49.4110   55.4360 N.3   180  ASP180     -0.1225
     44  CA        42.7290   48.5030   55.2740 C.3   180  ASP180      0.1805
     45  C         41.3890   49.2150   55.1530 C.2   180  ASP180      0.2597
     46  O         40.7230   49.1360   54.1210 O.2   180  ASP180     -0.2718
     47  CB        42.6710   47.4760   56.4130 C.3   180  ASP180      0.1424
     48  CG        41.7500   46.2830   56.0930 C.2   180  ASP180      0.3668
     49  OD1       40.5730   46.5000   55.7040 O.co2 180  ASP180     -0.2456
     50  OD2       42.1240   45.0890   56.2190 O.co2 180  ASP180     -0.2456
     51  N         40.9810   49.8860   56.2200 N.am  181  PHE181     -0.1976
     52  CA        39.7620   50.6820   56.1880 C.3   181  PHE181      0.1639
     53  C         40.1610   52.1570   56.1370 C.2   181  PHE181      0.2290
     54  O         39.7150   52.9770   56.9500 O.2   181  PHE181     -0.2864
     55  CB        38.8790   50.3730   57.4030 C.3   181  PHE181      0.0560
     56  CG        38.0660   49.1100   57.2620 C.ar  181  PHE181     -0.0200
     57  CD1       36.7470   49.1680   56.8360 C.ar  181  PHE181     -0.0042
     58  CD2       38.6120   47.8660   57.5730 C.ar  181  PHE181     -0.0042
     59  CE1       35.9840   48.0110   56.7090 C.ar  181  PHE181     -0.0003
     60  CE2       37.8580   46.7010   57.4470 C.ar  181  PHE181     -0.0003
     61  CZ        36.5430   46.7770   57.0140 C.ar  181  PHE181     -0.0000
     62  N         41.6610   43.6670   47.3440 N.3   214  CYS214     -0.1221
     63  CA        42.3560   44.0700   48.5620 C.3   214  CYS214      0.1808
     64  C         42.3620   42.8710   49.5070 C.2   214  CYS214      0.2602
     65  O         42.7610   41.7800   49.1160 O.2   214  CYS214     -0.2717
     66  CB        41.7280   45.3100   49.2010 C.3   214  CYS214      0.0970
     67  SG        39.9310   45.3650   49.1500 S.3   214  CYS214     -0.0800
     68  N         41.9260   43.0480   50.7420 N.am  215  SER215     -0.1938
     69  CA        41.8210   41.9030   51.6250 C.3   215  SER215      0.2055
     70  C         40.5190   41.1650   51.3610 C.2   215  SER215      0.2642
     71  O         40.5270   39.9570   51.1300 O.2   215  SER215     -0.2714
     72  CB        41.9090   42.3200   53.0840 C.3   215  SER215      0.2130
     73  OG        42.2030   41.1880   53.8810 O.3   215  SER215     -0.2179
     74  N         39.4060   41.8980   51.3940 N.am  216  ALA216     -0.1977
     75  CA        38.0920   41.3320   51.0970 C.3   216  ALA216      0.1597
     76  C         37.6650   41.6290   49.6590 C.2   216  ALA216      0.2287
     77  O         36.8200   40.9350   49.0940 O.2   216  ALA216     -0.2864
     78  CB        37.0620   41.8600   52.0710 C.3   216  ALA216      0.0319
     79  N         36.3340   44.6810   48.5330 N.3   218  ILE218     -0.1231
     80  CA        35.1390   45.5210   48.4700 C.3   218  ILE218      0.1692
     81  C         35.4050   46.9780   48.8510 C.2   218  ILE218      0.2593
     82  O         34.8580   47.8910   48.2330 O.2   218  ILE218     -0.2718
     83  CB        33.9800   44.9210   49.3040 C.3   218  ILE218      0.0266
     84  CG1       34.3920   44.7200   50.7660 C.3   218  ILE218      0.0019
     85  CG2       33.4800   43.6130   48.6720 C.3   218  ILE218      0.0020
     86  CD1       33.2350   44.3700   51.6680 C.3   218  ILE218      0.0001
     87  N         36.2530   47.1900   49.8500 N.am  219  GLY219     -0.1942
     88  CA        36.5350   48.5260   50.3360 C.3   219  GLY219      0.2014
     89  C         37.3910   49.3280   49.3820 C.2   219  GLY219      0.2638
     90  O         36.8790   50.1790   48.6470 O.2   219  GLY219     -0.2714
     91  N         38.6950   49.0560   49.3940 N.am  220  ARG220     -0.1977
     92  CA        39.6380   49.7480   48.5180 C.3   220  ARG220      0.1597
     93  C         39.3920   49.4040   47.0570 C.2   220  ARG220      0.2287
     94  O         39.5360   50.2570   46.1720 O.2   220  ARG220     -0.2864
     95  CB        41.0680   49.4000   48.9010 C.3   220  ARG220      0.0334
     96  CG        41.4560   49.8790   50.2710 C.3   220  ARG220      0.0492
     97  CD        42.7650   49.3120   50.7520 C.3   220  ARG220      0.2205
     98  NE        42.5780   48.0300   51.4300 N.pl3 220  ARG220     -0.0865
     99  CZ        43.5170   47.4070   52.1310 C.cat 220  ARG220      0.5346
    100  NH1       44.7230   47.9370   52.2540 N.pl3 220  ARG220      0.1354
    101  NH2       43.2490   46.2500   52.7140 N.pl3 220  ARG220      0.1354
    102  N         33.7960   50.7080   51.9420 N.3   261  GLN261     -0.1245
    103  CA        33.4890   50.2690   53.3040 C.3   261  GLN261      0.1566
    104  C         33.2980   51.3680   54.3350 C.2   261  GLN261      0.2260
    105  O         32.6910   51.1350   55.3770 O.2   261  GLN261     -0.2867
    106  CB        34.5440   49.2850   53.8050 C.3   261  GLN261      0.0367
    107  CG        34.3170   47.8610   53.3400 C.3   261  GLN261      0.0905
    108  CD        33.1500   47.1990   54.0380 C.2   261  GLN261      0.2608
    109  OE1       32.3140   47.8720   54.6300 O.2   261  GLN261     -0.2717
    110  NE2       33.0780   45.8790   53.9910 N.am  261  GLN261     -0.0878
@<TRIPOS>BOND
     1    94    93    2
     2    93    92    1
     3    62    63    1
     4    82    81    2
     5    80    79    1
     6    80    81    1
     7    80    83    1
     8    92    95    1
     9    92    91    1
    10    63    66    1
    11    63    64    1
    12    90    89    2
    13    85    83    1
    14    81    87   am
    15    95    96    1
    16    77    76    2
    17    65    64    2
    18    67    66    1
    19    83    84    1
    20    89    91   am
    21    89    88    1
    22    64    68   am
    23    76    75    1
    24    87    88    1
    25    96    97    1
    26    68    69    1
    27    97    98    1
    28    84    86    1
    29    32    31    1
    30    75    74    1
    31    75    78    1
    32    71    70    2
    33    30    29    2
    34    70    74   am
    35    70    69    1
    36    29    28    1
    37    98    99    2
    38    69    72    1
    39   102   103    1
    40    99   100    1
    41    99   101    1
    42    31    28    1
    43    31    33    1
    44    28    27    1
    45    37    36    2
    46    72    73    1
    47   103   106    1
    48   103   104    1
    49   107   106    1
    50   107   108    1
    51    36    35    1
    52    27    21   am
    53   110   108   am
    54   108   109    2
    55    46    45    2
    56     4     3    2
    57   104   105    2
    58     8    10   ar
    59     8     6   ar
    60    22    21    2
    61    10    11   ar
    62     1     2    1
    63    21    20    1
    64    16    15    2
    65    38    35    1
    66    38    39    1
    67    35    34    1
    68    45    44    1
    69    45    51   am
    70    44    43    1
    71    44    47    1
    72     3     2    1
    73     3    13   am
    74     5     2    1
    75     5     6    1
    76     6     7   ar
    77    15    19   am
    78    15    14    1
    79    49    48   ar
    80    11    12    1
    81    11     9   ar
    82    20    19    1
    83    20    23    1
    84    48    50   ar
    85    48    47    1
    86    53    52    1
    87    53    54    2
    88    52    51    1
    89    52    55    1
    90    39    40    1
    91    14    13    1
    92    14    17    1
    93    40    41    1
    94    59    57   ar
    95    59    61   ar
    96     7     9   ar
    97    57    56   ar
    98    61    60   ar
    99    23    24    1
   100    25    24   ar
   101    56    55    1
   102    56    58   ar
   103    60    58   ar
   104    24    26   ar
   105    17    18    1
   106    41    42    1
