@<TRIPOS>MOLECULE
tmp/1nwgD00.pdb
 132 132 0 0 0
SMALL
GASTEIGER

@<TRIPOS>ATOM
      1  N         36.1780   23.7740   17.5360 N.3   149  LYS149     -0.1231
      2  CA        34.7710   23.5830   17.2290 C.3   149  LYS149      0.1693
      3  C         34.5900   23.5550   15.7160 C.2   149  LYS149      0.2592
      4  O         33.7440   22.8410   15.1930 O.2   149  LYS149     -0.2718
      5  CB        33.9380   24.7290   17.8010 C.3   149  LYS149      0.0285
      6  CG        32.4990   24.7350   17.3100 C.3   149  LYS149      0.0035
      7  CD        31.6470   25.8380   17.9530 C.3   149  LYS149      0.0206
      8  CE        30.1780   25.6750   17.5570 C.3   149  LYS149      0.1093
      9  NZ        29.3100   26.6380   18.2550 N.3   149  LYS149     -0.1314
     10  N         35.4070   24.3420   15.0280 N.am  150  PHE150     -0.1976
     11  CA        35.3330   24.4500   13.5930 C.3   150  PHE150      0.1639
     12  C         36.4640   23.7100   12.8830 C.2   150  PHE150      0.2290
     13  O         36.9250   24.1410   11.8310 O.2   150  PHE150     -0.2864
     14  CB        35.3400   25.9290   13.2210 C.3   150  PHE150      0.0560
     15  CG        34.3170   26.7350   13.9610 C.ar  150  PHE150     -0.0200
     16  CD1       34.7000   27.7990   14.7740 C.ar  150  PHE150     -0.0042
     17  CD2       32.9620   26.4270   13.8560 C.ar  150  PHE150     -0.0042
     18  CE1       33.7480   28.5440   15.4660 C.ar  150  PHE150     -0.0003
     19  CE2       31.9980   27.1690   14.5480 C.ar  150  PHE150     -0.0003
     20  CZ        32.3890   28.2250   15.3500 C.ar  150  PHE150     -0.0000
     21  N         35.7410   29.4200   10.6470 N.3   155  PRO155     -0.2102
     22  CA        34.4200   28.9680   10.1900 C.3   155  PRO155      0.1504
     23  C         34.0750   29.7270    8.9000 C.2   155  PRO155      0.2575
     24  O         33.4110   29.2050    8.0090 O.2   155  PRO155     -0.2718
     25  CB        33.5070   29.3550   11.3460 C.3   155  PRO155      0.0282
     26  CG        34.1510   30.6550   11.8440 C.3   155  PRO155      0.0208
     27  CD        35.6310   30.3060   11.8230 C.3   155  PRO155      0.0893
     28  N         34.5300   30.9730    8.8370 N.am  156  TYR156     -0.1977
     29  CA        34.3320   31.8460    7.6870 C.3   156  TYR156      0.1639
     30  C         35.2620   33.0530    7.8100 C.2   156  TYR156      0.2290
     31  O         35.4840   33.5900    8.8910 O.2   156  TYR156     -0.2864
     32  CB        32.8740   32.3080    7.5380 C.3   156  TYR156      0.0560
     33  CG        32.2560   33.0920    8.6950 C.ar  156  TYR156     -0.0198
     34  CD1       31.9410   34.4600    8.5610 C.ar  156  TYR156     -0.0009
     35  CD2       31.9080   32.4510    9.8810 C.ar  156  TYR156     -0.0009
     36  CE1       31.2950   35.1490    9.5790 C.ar  156  TYR156      0.0417
     37  CE2       31.2640   33.1250   10.8980 C.ar  156  TYR156      0.0417
     38  CZ        30.9590   34.4710   10.7480 C.ar  156  TYR156      0.1957
     39  OH        30.3190   35.1100   11.7760 O.3   156  TYR156     -0.2866
     40  N         34.6630   36.1740    9.8720 N.3   159  TYR159     -0.1241
     41  CA        34.4330   35.9120   11.2880 C.3   159  TYR159      0.1605
     42  C         35.3800   36.7010   12.1810 C.2   159  TYR159      0.2264
     43  O         36.6010   36.6460   12.0120 O.2   159  TYR159     -0.2867
     44  CB        34.5970   34.4130   11.5380 C.3   159  TYR159      0.0534
     45  CG        34.4860   33.9580   12.9720 C.ar  159  TYR159     -0.0201
     46  CD1       33.3630   34.2480   13.7290 C.ar  159  TYR159     -0.0009
     47  CD2       35.4750   33.1520   13.5430 C.ar  159  TYR159     -0.0009
     48  CE1       33.2200   33.7350   15.0120 C.ar  159  TYR159      0.0417
     49  CE2       35.3410   32.6380   14.8180 C.ar  159  TYR159      0.0417
     50  CZ        34.2080   32.9240   15.5430 C.ar  159  TYR159      0.1957
     51  OH        34.0110   32.3330   16.7680 O.3   159  TYR159     -0.2866
     52  N         34.6780   36.7090   15.7600 N.3   161  GLY161     -0.1225
     53  CA        34.1400   36.3360   17.0600 C.3   161  GLY161      0.1811
     54  C         35.0560   35.5360   17.9650 C.2   161  GLY161      0.2280
     55  O         36.1450   35.1390   17.5930 O.2   161  GLY161     -0.2866
     56  N         21.7380   35.4360   21.3660 N.3   184  TRP184     -0.1227
     57  CA        22.8670   34.8990   20.6170 C.3   184  TRP184      0.1737
     58  C         22.9480   35.2740   19.1330 C.2   184  TRP184      0.2596
     59  O         21.9290   35.4490   18.4620 O.2   184  TRP184     -0.2718
     60  CB        22.9000   33.3580   20.7350 C.3   184  TRP184      0.0564
     61  CG        24.1110   32.7470   20.0660 C.ar  184  TRP184      0.0003
     62  CD1       25.3500   32.6100   20.6030 C.ar  184  TRP184      0.0946
     63  CD2       24.2200   32.3300   18.6870 C.ar  184  TRP184      0.0152
     64  NE1       26.2320   32.1360   19.6490 N.ar  184  TRP184     -0.2442
     65  CE2       25.5630   31.9570   18.4670 C.ar  184  TRP184      0.0810
     66  CE3       23.3120   32.2460   17.6160 C.ar  184  TRP184      0.0012
     67  CZ2       26.0340   31.4970   17.2070 C.ar  184  TRP184      0.0191
     68  CZ3       23.7900   31.7850   16.3390 C.ar  184  TRP184      0.0001
     69  CH2       25.1300   31.4190   16.1610 C.ar  184  TRP184      0.0015
     70  N         24.1710   35.4000   18.6350 N.am  185  GLY185     -0.1942
     71  CA        24.3720   35.6720   17.2130 C.3   185  GLY185      0.2014
     72  C         24.3540   37.0740   16.6060 C.2   185  GLY185      0.2639
     73  O         23.6590   37.9670   17.0720 O.2   185  GLY185     -0.2714
     74  N         25.1460   37.2590   15.5610 N.am  186  GLY186     -0.1939
     75  CA        25.1810   38.5340   14.8660 C.3   186  GLY186      0.2014
     76  C         25.9570   39.7650   15.3630 C.2   186  GLY186      0.2639
     77  O         26.4090   40.5630   14.5230 O.2   186  GLY186     -0.2714
     78  N         26.1290   39.9470   16.6750 N.am  187  GLU187     -0.1963
     79  CA        26.8280   41.1350   17.1730 C.3   187  GLU187      0.1733
     80  C         28.2600   41.2490   16.6460 C.2   187  GLU187      0.2616
     81  O         28.7210   42.3560   16.3200 O.2   187  GLU187     -0.2715
     82  CB        26.8080   41.1810   18.7140 C.3   187  GLU187      0.0429
     83  CG        27.9280   40.4220   19.4090 C.3   187  GLU187      0.1163
     84  CD        27.8470   38.9330   19.2070 C.2   187  GLU187      0.3649
     85  OE1       28.9080   38.3170   19.2400 O.co2 187  GLU187     -0.2457
     86  OE2       26.7380   38.3780   19.0380 O.co2 187  GLU187     -0.2457
     87  N         28.9470   40.1100   16.5300 N.am  188  ASP188     -0.1957
     88  CA        30.3120   40.1000   16.0210 C.3   188  ASP188      0.1840
     89  C         30.3940   40.4220   14.5300 C.2   188  ASP188      0.2622
     90  O         31.3420   41.0660   14.0700 O.2   188  ASP188     -0.2715
     91  CB        31.0120   38.7600   16.3390 C.3   188  ASP188      0.1450
     92  CG        30.1930   37.5260   15.9650 C.2   188  ASP188      0.3671
     93  OD1       28.9840   37.4640   16.2350 O.co2 188  ASP188     -0.2456
     94  OD2       30.7810   36.5710   15.4240 O.co2 188  ASP188     -0.2456
     95  N         29.3950   40.0050   13.7640 N.am  189  ASP189     -0.1971
     96  CA        29.4300   40.2870   12.3410 C.3   189  ASP189      0.1709
     97  C         29.1250   41.7770   12.1440 C.2   189  ASP189      0.2293
     98  O         29.4610   42.3830   11.1210 O.2   189  ASP189     -0.2864
     99  CB        28.4110   39.4170   11.6350 C.3   189  ASP189      0.1436
    100  CG        28.6710   37.9430   11.8540 C.2   189  ASP189      0.3671
    101  OD1       29.7920   37.5000   11.5430 O.co2 189  ASP189     -0.2456
    102  OD2       27.7690   37.2270   12.3250 O.co2 189  ASP189     -0.2456
    103  N         18.6840   39.3490   14.5110 N.3   229  ARG229     -0.1231
    104  CA        20.0490   39.3970   14.0130 C.3   229  ARG229      0.1694
    105  C         20.2660   39.4440   12.4830 C.2   229  ARG229      0.2592
    106  O         21.2220   40.0720   12.0050 O.2   229  ARG229     -0.2718
    107  CB        20.8600   38.2340   14.6320 C.3   229  ARG229      0.0321
    108  CG        20.6720   36.8440   14.0070 C.3   229  ARG229      0.0489
    109  CD        21.3750   35.8050   14.9030 C.3   229  ARG229      0.2205
    110  NE        21.3460   34.4260   14.4080 N.pl3 229  ARG229     -0.0865
    111  CZ        20.2640   33.6510   14.3950 C.cat 229  ARG229      0.5346
    112  NH1       19.1160   34.1280   14.8380 N.pl3 229  ARG229      0.1354
    113  NH2       20.3390   32.3870   13.9850 N.pl3 229  ARG229      0.1354
    114  N         19.3960   38.8080   11.7100 N.am  230  PHE230     -0.1976
    115  CA        19.6130   38.8110   10.2740 C.3   230  PHE230      0.1639
    116  C         19.3970   40.1850    9.6450 C.2   230  PHE230      0.2290
    117  O         20.0770   40.5450    8.6870 O.2   230  PHE230     -0.2864
    118  CB        18.7340   37.7580    9.5780 C.3   230  PHE230      0.0560
    119  CG        18.9610   36.3480   10.0640 C.ar  230  PHE230     -0.0200
    120  CD1       18.1170   35.7840   11.0210 C.ar  230  PHE230     -0.0042
    121  CD2       20.0020   35.5830    9.5550 C.ar  230  PHE230     -0.0042
    122  CE1       18.3030   34.4730   11.4590 C.ar  230  PHE230     -0.0003
    123  CE2       20.2030   34.2760    9.9830 C.ar  230  PHE230     -0.0003
    124  CZ        19.3510   33.7120   10.9400 C.ar  230  PHE230     -0.0000
    125  N         22.4660   42.9820   11.1280 N.3   233  ILE233     -0.1245
    126  CA        23.8220   42.9670   10.5590 C.3   233  ILE233      0.1561
    127  C         23.8810   43.5500    9.1530 C.2   233  ILE233      0.2260
    128  O         24.9560   43.6350    8.5510 O.2   233  ILE233     -0.2867
    129  CB        24.4510   41.5470   10.4900 C.3   233  ILE233      0.0252
    130  CG1       23.5390   40.6000    9.7050 C.3   233  ILE233      0.0019
    131  CG2       24.7300   41.0140   11.8810 C.3   233  ILE233      0.0019
    132  CD1       24.0430   39.1270    9.6580 C.3   233  ILE233      0.0001
@<TRIPOS>BOND
     1    32    29    1
     2    32    33    1
     3    29    30    1
     4    29    28    1
     5    30    31    2
     6    24    23    2
     7   128   127    2
     8    34    33   ar
     9    34    36   ar
    10   117   116    2
    11    33    35   ar
    12    28    23   am
    13    23    22    1
    14   127   126    1
    15   121   123   ar
    16   121   119   ar
    17   118   119    1
    18   118   115    1
    19    36    38   ar
    20   116   115    1
    21   132   130    1
    22   130   129    1
    23    40    41    1
    24    35    37   ar
    25   123   124   ar
    26   119   120   ar
    27    22    21    1
    28    22    25    1
    29   115   114    1
    30   129   126    1
    31   129   131    1
    32   126   125    1
    33    21    27    1
    34    38    37   ar
    35    38    39    1
    36   124   122   ar
    37   120   122   ar
    38    98    97    2
    39    41    44    1
    40    41    42    1
    41    25    26    1
    42    44    45    1
    43   101   100   ar
    44    99   100    1
    45    99    96    1
    46   114   105   am
    47    27    26    1
    48    13    12    2
    49   100   102   ar
    50   106   105    2
    51    43    42    2
    52    97    96    1
    53    96    95    1
    54   105   104    1
    55    12    11    1
    56    45    47   ar
    57    45    46   ar
    58    14    11    1
    59    14    15    1
    60    47    49   ar
    61    11    10    1
    62    46    48   ar
    63    95    89   am
    64    17    15   ar
    65    17    19   ar
    66    15    16   ar
    67   113   111    1
    68   108   107    1
    69   108   109    1
    70   104   103    1
    71   104   107    1
    72    90    89    2
    73   111   110    2
    74   111   112    1
    75   110   109    1
    76    77    76    2
    77    89    88    1
    78    19    20   ar
    79    16    18   ar
    80    49    50   ar
    81    75    76    1
    82    75    74    1
    83    48    50   ar
    84    10     3   am
    85     4     3    2
    86    20    18   ar
    87    76    78   am
    88    94    92   ar
    89    50    51    1
    90    74    72   am
    91     3     2    1
    92    52    53    1
    93    92    93   ar
    94    92    91    1
    95    88    91    1
    96    88    87    1
    97    69    68   ar
    98    69    67   ar
    99    81    80    2
   100    68    66   ar
   101    87    80   am
   102    72    73    2
   103    72    71    1
   104    80    79    1
   105    78    79    1
   106    53    54    1
   107    79    82    1
   108    67    65   ar
   109    71    70    1
   110     2     1    1
   111     2     5    1
   112     6     5    1
   113     6     7    1
   114     8     7    1
   115     8     9    1
   116    55    54    2
   117    66    63   ar
   118    59    58    2
   119    65    63   ar
   120    65    64   ar
   121    70    58   am
   122    63    61   ar
   123    82    83    1
   124    86    84   ar
   125    58    57    1
   126    84    85   ar
   127    84    83    1
   128    64    62   ar
   129    61    62   ar
   130    61    60    1
   131    57    60    1
   132    57    56    1
