@<TRIPOS>MOLECULE
tmp/1nwkA01.pdb
 117 112 0 0 0
SMALL
GASTEIGER

@<TRIPOS>ATOM
      1  N         -7.2120    4.3280   13.5190 N.3    86  LEU86      -0.1245
      2  CA        -6.4300    3.1090   13.3670 C.3    86  LEU86       0.1561
      3  C         -5.7050    2.8420   14.6840 C.2    86  LEU86       0.2260
      4  O         -5.0550    3.7310   15.2330 O.2    86  LEU86      -0.2867
      5  CB        -5.4220    3.2490   12.2210 C.3    86  LEU86       0.0270
      6  CG        -4.5620    2.0160   11.9040 C.3    86  LEU86       0.0019
      7  CD1       -4.1240    2.0630   10.4460 C.3    86  LEU86       0.0001
      8  CD2       -3.3430    1.9620   12.8320 C.3    86  LEU86       0.0001
      9  N         -9.7060    0.5540   12.3710 N.3   115  TYR115     -0.1241
     10  CA        -8.9280   -0.5310   11.8010 C.3   115  TYR115      0.1605
     11  C         -7.8720   -0.9170   12.8230 C.2   115  TYR115      0.2264
     12  O         -7.3570   -0.0610   13.5450 O.2   115  TYR115     -0.2867
     13  CB        -8.2430   -0.0640   10.5150 C.3   115  TYR115      0.0534
     14  CG        -7.6250   -1.1770    9.6990 C.ar  115  TYR115     -0.0201
     15  CD1       -8.4120   -1.9760    8.8650 C.ar  115  TYR115     -0.0009
     16  CD2       -6.2580   -1.4340    9.7620 C.ar  115  TYR115     -0.0009
     17  CE1       -7.8500   -3.0020    8.1120 C.ar  115  TYR115      0.0417
     18  CE2       -5.6830   -2.4630    9.0120 C.ar  115  TYR115      0.0417
     19  CZ        -6.4860   -3.2390    8.1890 C.ar  115  TYR115      0.1957
     20  OH        -5.9210   -4.2440    7.4410 O.3   115  TYR115     -0.2866
     21  N         -4.1950   -2.9140   13.2820 N.3   117  ALA117     -0.1245
     22  CA        -3.0490   -3.5060   12.5990 C.3   117  ALA117      0.1562
     23  C         -2.0290   -4.0120   13.6110 C.2   117  ALA117      0.2260
     24  O         -1.9350   -3.4940   14.7280 O.2   117  ALA117     -0.2867
     25  CB        -2.4070   -2.4760   11.6670 C.3   117  ALA117      0.0290
     26  N          4.0290   -5.4890   11.8500 N.3   121  VAL121     -0.1245
     27  CA         3.7490   -5.3200   10.4300 C.3   121  VAL121      0.1561
     28  C          3.8470   -3.8400   10.0690 C.2   121  VAL121      0.2260
     29  O          4.4270   -3.4740    9.0430 O.2   121  VAL121     -0.2867
     30  CB         2.3460   -5.8790   10.0700 C.3   121  VAL121      0.0252
     31  CG1        2.0130   -5.5810    8.6130 C.3   121  VAL121      0.0019
     32  CG2        2.3200   -7.3940   10.3110 C.3   121  VAL121      0.0019
     33  N          6.2370   -2.0050    7.2250 N.3   125  TYR125     -0.1241
     34  CA         5.7400   -1.0960    6.1950 C.3   125  TYR125      0.1605
     35  C          6.5230    0.2100    6.2620 C.2   125  TYR125      0.2264
     36  O          6.8100    0.8270    5.2380 O.2   125  TYR125     -0.2867
     37  CB         4.2560   -0.7690    6.3990 C.3   125  TYR125      0.0534
     38  CG         3.2840   -1.9040    6.1510 C.ar  125  TYR125     -0.0201
     39  CD1        3.6900   -3.0860    5.5340 C.ar  125  TYR125     -0.0009
     40  CD2        1.9400   -1.7740    6.5070 C.ar  125  TYR125     -0.0009
     41  CE1        2.7810   -4.1100    5.2750 C.ar  125  TYR125      0.0417
     42  CE2        1.0250   -2.7870    6.2510 C.ar  125  TYR125      0.0417
     43  CZ         1.4510   -3.9520    5.6360 C.ar  125  TYR125      0.1957
     44  OH         0.5420   -4.9550    5.3790 O.3   125  TYR125     -0.2866
     45  N          3.0450   -9.4950    4.3030 N.3   150  GLY150     -0.1225
     46  CA         2.0670   -8.8790    5.1860 C.3   150  GLY150      0.1811
     47  C          1.4920   -9.7400    6.2960 C.2   150  GLY150      0.2280
     48  O          0.7480   -9.2420    7.1430 O.2   150  GLY150     -0.2866
     49  N         -0.3840    3.7590    6.3480 N.3   328  LEU328     -0.1231
     50  CA        -1.5430    2.9500    6.0120 C.3   328  LEU328      0.1693
     51  C         -2.8590    3.7220    6.1290 C.2   328  LEU328      0.2591
     52  O         -3.6980    3.6720    5.2340 O.2   328  LEU328     -0.2718
     53  CB        -1.5890    1.7180    6.9220 C.3   328  LEU328      0.0284
     54  CG        -2.3090    0.4720    6.4070 C.3   328  LEU328      0.0019
     55  CD1       -1.5770   -0.0630    5.1810 C.3   328  LEU328      0.0001
     56  CD2       -2.3470   -0.5900    7.5000 C.3   328  LEU328      0.0001
     57  N         -3.0310    4.4390    7.2330 N.am  329  ALA329     -0.1980
     58  CA        -4.2600    5.1910    7.4690 C.3   329  ALA329      0.1597
     59  C         -4.4710    6.3340    6.4930 C.2   329  ALA329      0.2287
     60  O         -5.5950    6.8120    6.3310 O.2   329  ALA329     -0.2864
     61  CB        -4.2740    5.7200    8.8830 C.3   329  ALA329      0.0319
     62  N         -3.9240    6.1450    3.2360 N.3   331  LEU331     -0.1231
     63  CA        -4.2470    5.6480    1.9000 C.3   331  LEU331      0.1693
     64  C         -5.7580    5.6360    1.6980 C.2   331  LEU331      0.2592
     65  O         -6.4020    4.5840    1.7410 O.2   331  LEU331     -0.2718
     66  CB        -3.6620    4.2420    1.7060 C.3   331  LEU331      0.0284
     67  CG        -2.1520    4.1570    1.9570 C.3   331  LEU331      0.0019
     68  CD1       -1.6580    2.7470    1.7090 C.3   331  LEU331      0.0001
     69  CD2       -1.4320    5.1490    1.0560 C.3   331  LEU331      0.0001
     70  N         -6.3100    6.8240    1.4710 N.am  332  SER332     -0.1952
     71  CA        -7.7420    6.9990    1.2820 C.3   332  SER332      0.1924
     72  C         -8.3500    6.1980    0.1350 C.2   332  SER332      0.2314
     73  O         -9.5460    5.9280    0.1410 O.2   332  SER332     -0.2863
     74  CB        -8.0710    8.4880    1.1140 C.3   332  SER332      0.2116
     75  OG        -7.2290    9.0930    0.1540 O.3   332  SER332     -0.2180
     76  N         -7.9530    3.2030   -0.3860 N.3   334  PHE334     -0.1227
     77  CA        -8.3650    1.9370    0.2170 C.3   334  PHE334      0.1736
     78  C         -9.3340    2.1680    1.3800 C.2   334  PHE334      0.2595
     79  O         -9.4240    1.3460    2.2960 O.2   334  PHE334     -0.2718
     80  CB        -7.1370    1.1710    0.7250 C.3   334  PHE334      0.0547
     81  CG        -6.3090    0.5600   -0.3650 C.ar  334  PHE334     -0.0202
     82  CD1       -5.5880    1.3620   -1.2470 C.ar  334  PHE334     -0.0042
     83  CD2       -6.2780   -0.8220   -0.5340 C.ar  334  PHE334     -0.0042
     84  CE1       -4.8520    0.7970   -2.2850 C.ar  334  PHE334     -0.0003
     85  CE2       -5.5450   -1.3940   -1.5690 C.ar  334  PHE334     -0.0003
     86  CZ        -4.8300   -0.5810   -2.4470 C.ar  334  PHE334     -0.0000
     87  N        -10.0670    3.2770    1.3420 N.am  335  GLN335     -0.1979
     88  CA       -10.9990    3.5870    2.4210 C.3   335  GLN335      0.1601
     89  C        -11.9820    2.4630    2.7360 C.2   335  GLN335      0.2287
     90  O        -12.4860    2.3810    3.8530 O.2   335  GLN335     -0.2864
     91  CB       -11.7710    4.8760    2.1220 C.3   335  GLN335      0.0394
     92  CG       -12.7420    4.7840    0.9650 C.3   335  GLN335      0.0908
     93  CD       -13.5380    6.0620    0.7880 C.2   335  GLN335      0.2608
     94  OE1      -12.9700    7.1520    0.7090 O.2   335  GLN335     -0.2717
     95  NE2      -14.8590    5.9360    0.7220 N.am  335  GLN335     -0.0878
     96  N        -11.2970   -0.4380    3.2810 N.3   337  MET337     -0.1230
     97  CA       -10.6790   -1.3730    4.2190 C.3   337  MET337      0.1702
     98  C        -11.0590   -0.9970    5.6590 C.2   337  MET337      0.2592
     99  O        -11.0050   -1.8310    6.5630 O.2   337  MET337     -0.2718
    100  CB        -9.1580   -1.3750    4.0550 C.3   337  MET337      0.0401
    101  CG        -8.6440   -2.1300    2.8280 C.3   337  MET337      0.0596
    102  SD        -9.1600   -3.8570    2.8230 S.3   337  MET337     -0.1393
    103  CE        -8.5500   -4.4370    4.4160 C.3   337  MET337      0.0692
    104  N        -11.4410    0.2600    5.8700 N.am  338  TRP338     -0.1976
    105  CA       -11.8640    0.7040    7.2030 C.3   338  TRP338      0.1640
    106  C        -13.1000   -0.0800    7.6080 C.2   338  TRP338      0.2290
    107  O        -13.9360   -0.3660    6.7690 O.2   338  TRP338     -0.2864
    108  CB       -12.2740    2.1850    7.2020 C.3   338  TRP338      0.0576
    109  CG       -11.1660    3.1740    7.1140 C.ar  338  TRP338      0.0006
    110  CD1      -10.8390    3.9430    6.0360 C.ar  338  TRP338      0.0946
    111  CD2      -10.2390    3.5190    8.1530 C.ar  338  TRP338      0.0152
    112  NE1       -9.7640    4.7480    6.3370 N.ar  338  TRP338     -0.2442
    113  CE2       -9.3750    4.5080    7.6290 C.ar  338  TRP338      0.0810
    114  CE3      -10.0540    3.0860    9.4760 C.ar  338  TRP338      0.0012
    115  CZ2       -8.3370    5.0730    8.3810 C.ar  338  TRP338      0.0191
    116  CZ3       -9.0180    3.6500   10.2250 C.ar  338  TRP338      0.0001
    117  CH2       -8.1750    4.6320    9.6720 C.ar  338  TRP338      0.0015
@<TRIPOS>BOND
     1    86    84   ar
     2    86    85   ar
     3    84    82   ar
     4    85    83   ar
     5    82    81   ar
     6    83    81   ar
     7    76    77    1
     8    81    80    1
     9    72    73    2
    10    72    71    1
    11    75    74    1
    12    77    80    1
    13    77    78    1
    14    94    93    2
    15    95    93   am
    16    93    92    1
    17    92    91    1
    18    69    67    1
    19    74    71    1
    20    71    70    1
    21    87    78   am
    22    87    88    1
    23    78    79    2
    24    70    64   am
    25    64    65    2
    26    64    63    1
    27    66    63    1
    28    66    67    1
    29    68    67    1
    30    63    62    1
    31    91    88    1
    32    88    89    1
    33    89    90    2
    34   102   101    1
    35   102   103    1
    36   101   100    1
    37    96    97    1
    38   100    97    1
    39    97    98    1
    40    45    46    1
    41    55    54    1
    42    46    47    1
    43    52    51    2
    44    36    35    2
    45    41    39   ar
    46    41    43   ar
    47    44    43    1
    48    39    38   ar
    49    43    42   ar
    50    98   104   am
    51    98    99    2
    52   104   105    1
    53    50    51    1
    54    50    49    1
    55    50    53    1
    56   110   112   ar
    57   110   109   ar
    58    51    57   am
    59    38    37    1
    60    38    40   ar
    61    34    35    1
    62    34    37    1
    63    34    33    1
    64    42    40   ar
    65    47    48    2
    66    60    59    2
    67   112   113   ar
    68    54    53    1
    69    54    56    1
    70    59    58    1
    71   107   106    2
    72   109   108    1
    73   109   111   ar
    74   108   105    1
    75   105   106    1
    76    57    58    1
    77    20    19    1
    78    58    61    1
    79   113   111   ar
    80   113   115   ar
    81    17    19   ar
    82    17    15   ar
    83   111   114   ar
    84    19    18   ar
    85   115   117   ar
    86    31    30    1
    87    15    14   ar
    88    18    16   ar
    89    29    28    2
    90   114   116   ar
    91   117   116   ar
    92    14    16   ar
    93    14    13    1
    94    28    27    1
    95    30    32    1
    96    30    27    1
    97    27    26    1
    98     7     6    1
    99    13    10    1
   100    25    22    1
   101    10     9    1
   102    10    11    1
   103     6     5    1
   104     6     8    1
   105     5     2    1
   106    22    21    1
   107    22    23    1
   108    11    12    2
   109     2     1    1
   110     2     3    1
   111    23    24    2
   112     3     4    2
