@<TRIPOS>MOLECULE
tmp/1nwkA00.pdb
 186 175 0 0 0
SMALL
GASTEIGER

@<TRIPOS>ATOM
      1  N         -0.9950    4.3270   18.7660 N.3     6  ASP6       -0.1239
      2  CA        -0.1360    3.1750   19.0170 C.3     6  ASP6        0.1674
      3  C          0.1030    3.0820   20.5270 C.2     6  ASP6        0.2266
      4  O          0.8950    3.8430   21.0860 O.2     6  ASP6       -0.2867
      5  CB         1.1860    3.3400   18.2540 C.3     6  ASP6        0.1410
      6  CG         2.2180    2.3030   18.6410 C.2     6  ASP6        0.3668
      7  OD1        1.8320    1.1400   18.8910 O.co2   6  ASP6       -0.2456
      8  OD2        3.4190    2.6540   18.6800 O.co2   6  ASP6       -0.2456
      9  N          1.6260    1.4680   23.7020 N.3     8  GLY8       -0.1210
     10  CA         2.6930    0.5870   24.1580 C.3     8  GLY8        0.1956
     11  C          2.6700    0.3520   25.6630 C.2     8  GLY8        0.2613
     12  O          1.9100    0.9960   26.3880 O.2     8  GLY8       -0.2717
     13  N          3.5050   -0.5720   26.1300 N.am    9  SER9       -0.1938
     14  CA         3.5900   -0.9030   27.5530 C.3     9  SER9        0.2055
     15  C          4.0360    0.2990   28.3810 C.2     9  SER9        0.2644
     16  O          3.6420    0.4500   29.5400 O.2     9  SER9       -0.2714
     17  CB         4.5840   -2.0490   27.7730 C.3     9  SER9        0.2130
     18  OG         4.2170   -3.1960   27.0290 O.3     9  SER9       -0.2179
     19  N          4.8620    1.1490   27.7830 N.am   10  GLY10      -0.1939
     20  CA         5.3440    2.3170   28.4940 C.3    10  GLY10       0.2014
     21  C          4.8570    3.6520   27.9710 C.2    10  GLY10       0.2638
     22  O          4.6420    4.5760   28.7610 O.2    10  GLY10      -0.2714
     23  N          4.6700    3.7580   26.6570 N.am   11  LEU11      -0.1977
     24  CA         4.2330    5.0170   26.0530 C.3    11  LEU11       0.1596
     25  C          3.1270    4.8990   25.0160 C.2    11  LEU11       0.2287
     26  O          3.0730    3.9380   24.2540 O.2    11  LEU11      -0.2864
     27  CB         5.4170    5.7070   25.3750 C.3    11  LEU11       0.0297
     28  CG         6.6360    6.0850   26.2120 C.3    11  LEU11       0.0022
     29  CD1        7.7560    6.5400   25.2960 C.3    11  LEU11       0.0001
     30  CD2        6.2570    7.1790   27.2000 C.3    11  LEU11       0.0001
     31  N          1.6210    6.6240   21.6960 N.3    13  LYS13      -0.1245
     32  CA         2.0450    7.5180   20.6180 C.3    13  LYS13       0.1561
     33  C          0.7830    7.7530   19.7990 C.2    13  LYS13       0.2260
     34  O          0.1560    6.8000   19.3290 O.2    13  LYS13      -0.2867
     35  CB         3.1280    6.8780   19.7340 C.3    13  LYS13       0.0271
     36  CG         4.5530    6.9240   20.3010 C.3    13  LYS13       0.0035
     37  CD         4.7770    5.9280   21.4430 C.3    13  LYS13       0.0206
     38  CE         4.7590    4.4860   20.9460 C.3    13  LYS13       0.1093
     39  NZ         4.9580    3.5140   22.0650 N.3    13  LYS13      -0.1314
     40  N          2.9360   -5.4420   26.0690 N.3    56  GLY56      -0.1225
     41  CA         2.2250   -5.0850   24.8560 C.3    56  GLY56       0.1811
     42  C          0.7600   -5.4600   24.7790 C.2    56  GLY56       0.2280
     43  O          0.0580   -5.0180   23.8750 O.2    56  GLY56      -0.2866
     44  N          1.4210   -4.3140   15.2650 N.3   119  GLN119     -0.1245
     45  CA         2.5570   -3.4080   15.3920 C.3   119  GLN119      0.1566
     46  C          3.7820   -3.7470   14.5480 C.2   119  GLN119      0.2260
     47  O          4.3140   -2.8820   13.8520 O.2   119  GLN119     -0.2867
     48  CB         2.9480   -3.2970   16.8660 C.3   119  GLN119      0.0367
     49  CG         1.9000   -2.5820   17.6940 C.3   119  GLN119      0.0905
     50  CD         1.9080   -3.0070   19.1480 C.2   119  GLN119      0.2608
     51  OE1        2.8010   -3.7280   19.5890 O.2   119  GLN119     -0.2717
     52  NE2        0.9090   -2.5590   19.9000 N.am  119  GLN119     -0.0878
     53  N         11.3520   -5.9170   17.4070 N.3   136  ASP136     -0.1239
     54  CA        10.6660   -4.7790   18.0140 C.3   136  ASP136      0.1674
     55  C         10.9860   -4.7970   19.5070 C.2   136  ASP136      0.2266
     56  O         10.6450   -5.7460   20.2080 O.2   136  ASP136     -0.2867
     57  CB         9.1480   -4.9030   17.8010 C.3   136  ASP136      0.1410
     58  CG         8.3840   -3.6120   18.1460 C.2   136  ASP136      0.3668
     59  OD1        8.9090   -2.7720   18.9120 O.co2 136  ASP136     -0.2456
     60  OD2        7.2400   -3.4470   17.6570 O.co2 136  ASP136     -0.2456
     61  N         10.6790   -2.3080   22.8850 N.3   138  GLY138     -0.1210
     62  CA        10.1800   -1.0620   23.4300 C.3   138  GLY138      0.1956
     63  C         10.5550   -0.7950   24.8700 C.2   138  GLY138      0.2612
     64  O         11.7340   -0.7990   25.2180 O.2   138  GLY138     -0.2717
     65  N          9.5470   -0.5580   25.7010 N.am  139  ASP139     -0.1959
     66  CA         9.7690   -0.2620   27.1120 C.3   139  ASP139      0.1840
     67  C          9.5770   -1.4850   28.0000 C.2   139  ASP139      0.2623
     68  O         10.2530   -1.6340   29.0210 O.2   139  ASP139     -0.2715
     69  CB         8.8120    0.8440   27.5680 C.3   139  ASP139      0.1450
     70  CG         9.1080    1.3330   28.9800 C.2   139  ASP139      0.3671
     71  OD1       10.1690    1.9550   29.1820 O.co2 139  ASP139     -0.2456
     72  OD2        8.2840    1.0930   29.8900 O.co2 139  ASP139     -0.2456
     73  N          8.6560   -2.3610   27.6120 N.am  140  GLY140     -0.1940
     74  CA         8.3840   -3.5310   28.4210 C.3   140  GLY140      0.2014
     75  C          8.6000   -4.8940   27.7980 C.2   140  GLY140      0.2638
     76  O          8.7370   -5.8760   28.5200 O.2   140  GLY140     -0.2714
     77  N          8.6430   -4.9800   26.4740 N.am  141  VAL141     -0.1977
     78  CA         8.8300   -6.2840   25.8470 C.3   141  VAL141      0.1596
     79  C          9.5780   -6.2050   24.5220 C.2   141  VAL141      0.2287
     80  O          9.6160   -5.1560   23.8690 O.2   141  VAL141     -0.2864
     81  CB         7.4550   -6.9740   25.6220 C.3   141  VAL141      0.0276
     82  CG1        6.6280   -6.1700   24.6100 C.3   141  VAL141      0.0022
     83  CG2        7.6520   -8.4200   25.1610 C.3   141  VAL141      0.0022
     84  N         13.4060   -1.5930   27.5060 N.3   164  GLY164     -0.1225
     85  CA        13.8990   -0.3260   28.0210 C.3   164  GLY164      0.1811
     86  C         13.7870   -0.0880   29.5150 C.2   164  GLY164      0.2280
     87  O         14.7190    0.4290   30.1330 O.2   164  GLY164     -0.2866
     88  N         16.9980    0.6720   32.0000 N.3   168  THR168     -0.1218
     89  CA        17.1160    1.8880   32.7930 C.3   168  THR168      0.1862
     90  C         17.4160    1.4990   34.2350 C.2   168  THR168      0.2287
     91  O         18.3020    2.0710   34.8700 O.2   168  THR168     -0.2866
     92  CB        15.8100    2.7140   32.7570 C.3   168  THR168      0.1770
     93  OG1       15.6400    3.2750   31.4490 O.3   168  THR168     -0.2211
     94  CG2       15.8520    3.8400   33.7960 C.3   168  THR168      0.0375
     95  N         17.5810    7.6410   32.7330 N.3   192  ARG192     -0.1245
     96  CA        16.9840    7.3250   31.4420 C.3   192  ARG192      0.1563
     97  C         17.5990    8.2490   30.3870 C.2   192  ARG192      0.2260
     98  O         17.8600    7.8360   29.2560 O.2   192  ARG192     -0.2867
     99  CB        15.4640    7.5140   31.5030 C.3   192  ARG192      0.0307
    100  CG        14.7300    7.1340   30.2220 C.3   192  ARG192      0.0489
    101  CD        13.2230    7.1540   30.4340 C.3   192  ARG192      0.2205
    102  NE        12.7420    8.4850   30.7900 N.pl3 192  ARG192     -0.0865
    103  CZ        11.5640    8.7290   31.3560 C.cat 192  ARG192      0.5346
    104  NH1       10.7400    7.7270   31.6380 N.pl3 192  ARG192      0.1354
    105  NH2       11.2090    9.9740   31.6420 N.pl3 192  ARG192      0.1354
    106  N         21.1000    7.0530   29.6230 N.3   195  LYS195     -0.1231
    107  CA        20.9510    5.8760   28.7780 C.3   195  LYS195      0.1693
    108  C         20.6900    6.2520   27.3190 C.2   195  LYS195      0.2591
    109  O         21.3470    5.7500   26.4040 O.2   195  LYS195     -0.2718
    110  CB        19.7890    5.0180   29.2850 C.3   195  LYS195      0.0285
    111  CG        19.5690    3.7370   28.4800 C.3   195  LYS195      0.0035
    112  CD        18.2790    3.0100   28.8710 C.3   195  LYS195      0.0206
    113  CE        17.0390    3.7530   28.3890 C.3   195  LYS195      0.1093
    114  NZ        15.7780    2.9690   28.6070 N.3   195  LYS195     -0.1314
    115  N         19.7290    7.1430   27.1050 N.am  196  GLU196     -0.1979
    116  CA        19.3660    7.5490   25.7500 C.3   196  GLU196      0.1602
    117  C         20.3870    8.4420   25.0510 C.2   196  GLU196      0.2287
    118  O         20.3740    8.5550   23.8260 O.2   196  GLU196     -0.2864
    119  CB        17.9780    8.2180   25.7680 C.3   196  GLU196      0.0415
    120  CG        16.9030    7.3440   26.4350 C.3   196  GLU196      0.1163
    121  CD        15.5040    7.9440   26.3860 C.2   196  GLU196      0.3649
    122  OE1       15.3600    9.1120   25.9800 O.co2 196  GLU196     -0.2457
    123  OE2       14.5410    7.2450   26.7650 O.co2 196  GLU196     -0.2457
    124  N         11.3350    0.1980   17.4620 N.3   283  GLY283     -0.1210
    125  CA        11.1860    0.4320   18.8900 C.3   283  GLY283      0.1956
    126  C         12.2670    1.2970   19.5080 C.2   283  GLY283      0.2612
    127  O         13.4120    1.3100   19.0440 O.2   283  GLY283     -0.2717
    128  N         11.8990    2.0130   20.5700 N.am  284  GLY284     -0.1942
    129  CA        12.8380    2.8930   21.2420 C.3   284  GLY284      0.2014
    130  C         14.1070    2.2150   21.7280 C.2   284  GLY284      0.2639
    131  O         15.1830    2.8140   21.7000 O.2   284  GLY284     -0.2714
    132  N         13.9980    0.9670   22.1700 N.am  285  THR285     -0.1950
    133  CA        15.1750    0.2600   22.6720 C.3   285  THR285      0.1897
    134  C         16.1250   -0.2640   21.5840 C.2   285  THR285      0.2313
    135  O         17.1560   -0.8610   21.8920 O.2   285  THR285     -0.2863
    136  CB        14.7430   -0.8610   23.6650 C.3   285  THR285      0.1794
    137  OG1       14.1880   -0.2450   24.8370 O.3   285  THR285     -0.2208
    138  CG2       15.9290   -1.7290   24.1000 C.3   285  THR285      0.0378
    139  N         17.2740    1.9090   19.4420 N.3   287  MET287     -0.1230
    140  CA        17.9180    3.1700   19.0730 C.3   287  MET287      0.1702
    141  C         19.4110    3.2930   19.3790 C.2   287  MET287      0.2592
    142  O         20.0650    4.2230   18.8940 O.2   287  MET287     -0.2718
    143  CB        17.1810    4.3370   19.7380 C.3   287  MET287      0.0401
    144  CG        15.8110    4.6410   19.1470 C.3   287  MET287      0.0596
    145  SD        15.9530    5.2450   17.4620 S.3   287  MET287     -0.1393
    146  CE        16.4110    6.9890   17.7750 C.3   287  MET287      0.0692
    147  N         19.9590    2.3690   20.1650 N.am  288  TYR288     -0.1963
    148  CA        21.3780    2.4350   20.5190 C.3   288  TYR288      0.1756
    149  C         22.3170    2.4010   19.3300 C.2   288  TYR288      0.2461
    150  O         22.1990    1.5430   18.4550 O.2   288  TYR288     -0.2730
    151  CB        21.7720    1.2850   21.4550 C.3   288  TYR288      0.0574
    152  CG        21.0180    1.2750   22.7550 C.ar  288  TYR288     -0.0198
    153  CD1       19.9450    0.4060   22.9540 C.ar  288  TYR288     -0.0009
    154  CD2       21.3610    2.1570   23.7830 C.ar  288  TYR288     -0.0009
    155  CE1       19.2270    0.4140   24.1450 C.ar  288  TYR288      0.0417
    156  CE2       20.6520    2.1740   24.9790 C.ar  288  TYR288      0.0417
    157  CZ        19.5870    1.3040   25.1540 C.ar  288  TYR288      0.1957
    158  OH        18.8750    1.3370   26.3280 O.3   288  TYR288     -0.2866
    159  N         23.2660    3.3460   19.2760 N.am  289  PRO289     -0.2727
    160  CA        24.2060    3.3430   18.1580 C.3   289  PRO289      0.1402
    161  C         24.9550    2.0100   18.2350 C.2   289  PRO289      0.2269
    162  O         25.2200    1.5080   19.3350 O.2   289  PRO289     -0.2865
    163  CB        25.1220    4.5230   18.4740 C.3   289  PRO289      0.0296
    164  CG        24.2220    5.4600   19.2150 C.3   289  PRO289      0.0237
    165  CD        23.4600    4.5320   20.1300 C.3   289  PRO289      0.0939
    166  N         12.2920    4.8280   16.2500 N.3   318  LYS318     -0.1231
    167  CA        11.7390    5.0330   17.5810 C.3   318  LYS318      0.1693
    168  C         10.2080    5.1170   17.4860 C.2   318  LYS318      0.2592
    169  O          9.4930    4.8190   18.4410 O.2   318  LYS318     -0.2718
    170  CB        12.2920    6.3290   18.1770 C.3   318  LYS318      0.0285
    171  CG        11.6890    6.7090   19.5080 C.3   318  LYS318      0.0035
    172  CD        12.3610    7.9480   20.0790 C.3   318  LYS318      0.0206
    173  CE        11.8230    8.2620   21.4640 C.3   318  LYS318      0.1093
    174  NZ        12.5460    9.3950   22.1050 N.3   318  LYS318     -0.1314
    175  N          9.7160    5.5390   16.3270 N.am  319  TYR319     -0.1976
    176  CA         8.2810    5.6650   16.0990 C.3   319  TYR319      0.1639
    177  C          7.8540    4.9140   14.8400 C.2   319  TYR319      0.2290
    178  O          6.8370    5.2530   14.2370 O.2   319  TYR319     -0.2864
    179  CB         7.8860    7.1390   15.9380 C.3   319  TYR319      0.0560
    180  CG         8.1590    8.0010   17.1480 C.ar  319  TYR319     -0.0198
    181  CD1        7.6720    7.6460   18.4030 C.ar  319  TYR319     -0.0009
    182  CD2        8.9090    9.1740   17.0380 C.ar  319  TYR319     -0.0009
    183  CE1        7.9230    8.4330   19.5250 C.ar  319  TYR319      0.0417
    184  CE2        9.1680    9.9710   18.1580 C.ar  319  TYR319      0.0417
    185  CZ         8.6710    9.5890   19.3970 C.ar  319  TYR319      0.1957
    186  OH         8.9310   10.3510   20.5140 O.3   319  TYR319     -0.2866
@<TRIPOS>BOND
     1    47    46    2
     2   178   177    2
     3    46    45    1
     4   177   176    1
     5    44    45    1
     6    45    48    1
     7   179   176    1
     8   179   180    1
     9   176   175    1
    10   166   167    1
    11   175   168   am
    12    48    49    1
    13   182   180   ar
    14   182   184   ar
    15   180   181   ar
    16    53    54    1
    17   145   146    1
    18   145   144    1
    19   124   125    1
    20   168   167    1
    21   168   169    2
    22   167   170    1
    23    60    58   ar
    24    49    50    1
    25    57    54    1
    26    57    58    1
    27    54    55    1
    28    58    59   ar
    29   184   185   ar
    30   160   161    1
    31   160   163    1
    32   160   159    1
    33   170   171    1
    34   161   162    2
    35     5     6    1
    36     5     2    1
    37   181   183   ar
    38   150   149    2
    39   163   164    1
    40     6     8   ar
    41     6     7   ar
    42     1     2    1
    43   125   126    1
    44   142   141    2
    45     2     3    1
    46   127   126    2
    47   140   141    1
    48   140   139    1
    49   140   143    1
    50   144   143    1
    51    50    51    2
    52    50    52   am
    53   164   165    1
    54   159   149   am
    55   159   165    1
    56    34    33    2
    57   149   148    1
    58   141   147   am
    59   185   183   ar
    60   185   186    1
    61    55    56    2
    62   171   172    1
    63   126   128   am
    64    35    36    1
    65    35    32    1
    66    33    32    1
    67   172   173    1
    68   147   148    1
    69    36    37    1
    70   148   151    1
    71     3     4    2
    72   128   129    1
    73    32    31    1
    74    38    37    1
    75    38    39    1
    76   129   130    1
    77   151   152    1
    78   173   174    1
    79   134   135    2
    80   134   133    1
    81   131   130    2
    82   130   132   am
    83   132   133    1
    84   133   136    1
    85   152   153   ar
    86   152   154   ar
    87    61    62    1
    88   153   155   ar
    89    62    63    1
    90   136   138    1
    91   136   137    1
    92     9    10    1
    93   154   156   ar
    94   118   117    2
    95    80    79    2
    96    43    42    2
    97   155   157   ar
    98    10    11    1
    99    26    25    2
   100    79    78    1
   101    82    81    1
   102    42    41    1
   103    41    40    1
   104    63    64    2
   105    63    65   am
   106   156   157   ar
   107    25    24    1
   108   117   116    1
   109   157   158    1
   110    83    81    1
   111    29    28    1
   112    27    24    1
   113    27    28    1
   114    81    78    1
   115    11    13   am
   116    11    12    2
   117    65    66    1
   118   116   119    1
   119   116   115    1
   120   119   120    1
   121    78    77    1
   122   122   121   ar
   123    24    23    1
   124    13    14    1
   125    28    30    1
   126   121   120    1
   127   121   123   ar
   128   109   108    2
   129    77    75   am
   130    23    21   am
   131    18    17    1
   132   115   108   am
   133    66    69    1
   134    66    67    1
   135   108   107    1
   136    84    85    1
   137    14    17    1
   138    14    15    1
   139    69    70    1
   140    73    67   am
   141    73    74    1
   142    19    15   am
   143    19    20    1
   144    75    74    1
   145    75    76    2
   146    21    20    1
   147    21    22    2
   148    67    68    2
   149    85    86    1
   150    15    16    2
   151   113   114    1
   152   113   112    1
   153   111   112    1
   154   111   110    1
   155   107   110    1
   156   107   106    1
   157    70    71   ar
   158    70    72   ar
   159    98    97    2
   160    86    87    2
   161   100   101    1
   162   100    99    1
   163    97    96    1
   164   101   102    1
   165   102   103    2
   166   103   104    1
   167   103   105    1
   168    96    99    1
   169    96    95    1
   170    93    92    1
   171    88    89    1
   172    92    89    1
   173    92    94    1
   174    89    90    1
   175    90    91    2
