@<TRIPOS>MOLECULE
tmp/1nwlA00.pdb
 161 153 0 0 0
SMALL
GASTEIGER

@<TRIPOS>ATOM
      1  N         70.5960   26.8030   37.4000 N.3    41  LYS41      -0.1245
      2  CA        69.6370   27.0640   36.3270 C.3    41  LYS41       0.1561
      3  C         68.4940   26.0470   36.3040 C.2    41  LYS41       0.2260
      4  O         67.3320   26.4160   36.1210 O.2    41  LYS41      -0.2867
      5  CB        70.3500   27.0950   34.9700 C.3    41  LYS41       0.0271
      6  CG        69.6120   27.8730   33.8860 C.3    41  LYS41       0.0035
      7  CD        69.0750   26.9410   32.8100 C.3    41  LYS41       0.0206
      8  CE        68.3390   27.7140   31.7250 C.3    41  LYS41       0.1093
      9  NZ        69.1420   27.8160   30.4720 N.3    41  LYS41      -0.1314
     10  N         65.5400   26.3120   39.0060 N.3    44  ASN44      -0.1225
     11  CA        64.5490   27.3810   38.8920 C.3    44  ASN44       0.1785
     12  C         63.5110   27.1070   37.8120 C.2    44  ASN44       0.2597
     13  O         63.8300   26.5750   36.7480 O.2    44  ASN44      -0.2718
     14  CB        65.2240   28.7340   38.6280 C.3    44  ASN44       0.1169
     15  CG        66.1690   29.1490   39.7430 C.2    44  ASN44       0.2627
     16  OD1       67.3330   29.4580   39.4980 O.2    44  ASN44      -0.2716
     17  ND2       65.6700   29.1590   40.9730 N.am   44  ASN44      -0.0877
     18  N         62.2710   27.4900   38.0980 N.am   45  ARG45      -0.1966
     19  CA        61.1510   27.2860   37.1880 C.3    45  ARG45       0.1729
     20  C         60.9900   28.4640   36.2280 C.2    45  ARG45       0.2616
     21  O         60.7780   28.2720   35.0280 O.2    45  ARG45      -0.2715
     22  CB        59.8700   27.0730   37.9960 C.3    45  ARG45       0.0348
     23  CG        58.6930   26.5510   37.2050 C.3    45  ARG45       0.0492
     24  CD        57.4750   26.2500   38.0640 C.3    45  ARG45       0.2205
     25  NE        57.5690   24.9390   38.7030 N.pl3  45  ARG45      -0.0865
     26  CZ        57.2320   23.7940   38.1180 C.cat  45  ARG45       0.5346
     27  NH1       56.7710   23.7880   36.8730 N.pl3  45  ARG45       0.1354
     28  NH2       57.3510   22.6510   38.7790 N.pl3  45  ARG45       0.1354
     29  N         61.0850   29.6780   36.7660 N.am   46  TYR46      -0.1960
     30  CA        60.9660   30.9000   35.9710 C.3    46  TYR46       0.1771
     31  C         62.1910   31.7930   36.1360 C.2    46  TYR46       0.2620
     32  O         62.7550   31.8980   37.2300 O.2    46  TYR46      -0.2715
     33  CB        59.6950   31.6730   36.3450 C.3    46  TYR46       0.0574
     34  CG        58.4190   30.8840   36.1620 C.ar   46  TYR46      -0.0198
     35  CD1       57.9280   30.5980   34.8870 C.ar   46  TYR46      -0.0009
     36  CD2       57.7030   30.4170   37.2660 C.ar   46  TYR46      -0.0009
     37  CE1       56.7530   29.8680   34.7160 C.ar   46  TYR46       0.0417
     38  CE2       56.5250   29.6860   37.1060 C.ar   46  TYR46       0.0417
     39  CZ        56.0570   29.4160   35.8290 C.ar   46  TYR46       0.1957
     40  OH        54.8950   28.6960   35.6610 O.3    46  TYR46      -0.2866
     41  N         62.5860   32.4370   35.0390 N.am   47  CYS47      -0.1954
     42  CA        63.7520   33.3210   35.0060 C.3    47  CYS47       0.1843
     43  C         63.5520   34.5970   35.8230 C.2    47  CYS47       0.2625
     44  O         64.5130   35.1630   36.3480 O.2    47  CYS47      -0.2714
     45  CB        64.0910   33.6910   33.5600 C.3    47  CYS47       0.0997
     46  SG        65.5430   32.8440   32.9010 S.3    47  CYS47      -0.0797
     47  N         62.3000   35.0370   35.9260 N.am   48  ASP48      -0.1957
     48  CA        61.9620   36.2860   36.6080 C.3    48  ASP48       0.1840
     49  C         61.4180   36.1130   38.0380 C.2    48  ASP48       0.2621
     50  O         60.9850   37.0900   38.6580 O.2    48  ASP48      -0.2715
     51  CB        60.9990   37.1270   35.7480 C.3    48  ASP48       0.1450
     52  CG        59.7540   36.3540   35.3140 C.2    48  ASP48       0.3671
     53  OD1       59.6690   35.1300   35.5610 O.co2  48  ASP48      -0.2456
     54  OD2       58.8030   36.8990   34.7120 O.co2  48  ASP48      -0.2456
     55  N         61.4440   34.8810   38.5550 N.am   49  VAL49      -0.1977
     56  CA        61.0200   34.6040   39.9360 C.3    49  VAL49       0.1596
     57  C         62.1640   34.0050   40.7600 C.2    49  VAL49       0.2287
     58  O         62.3460   32.7840   40.8080 O.2    49  VAL49      -0.2864
     59  CB        59.7720   33.6840   40.0080 C.3    49  VAL49       0.0276
     60  CG1       59.2510   33.5980   41.4420 C.3    49  VAL49       0.0022
     61  CG2       58.6680   34.1750   39.0800 C.3    49  VAL49       0.0022
     62  N         47.1390   22.7440   35.0290 N.3   115  GLU115     -0.1231
     63  CA        46.2340   23.8680   34.8310 C.3   115  GLU115      0.1699
     64  C         46.4460   24.4010   33.4250 C.2   115  GLU115      0.2592
     65  O         47.5880   24.5010   32.9630 O.2   115  GLU115     -0.2718
     66  CB        46.4950   24.9730   35.8630 C.3   115  GLU115      0.0402
     67  CG        46.1380   24.5880   37.2930 C.3   115  GLU115      0.1161
     68  CD        46.3320   25.7100   38.3030 C.2   115  GLU115      0.3649
     69  OE1       46.8560   26.7850   37.9450 O.co2 115  GLU115     -0.2457
     70  OE2       45.9490   25.5110   39.4710 O.co2 115  GLU115     -0.2457
     71  N         45.3460   24.7320   32.7470 N.am  116  LYS116     -0.1980
     72  CA        45.3900   25.2390   31.3710 C.3   116  LYS116      0.1596
     73  C         46.1140   24.2660   30.4270 C.2   116  LYS116      0.2287
     74  O         46.8290   24.6880   29.5110 O.2   116  LYS116     -0.2864
     75  CB        46.0450   26.6290   31.3230 C.3   116  LYS116      0.0298
     76  CG        45.1690   27.7590   31.8480 C.3   116  LYS116      0.0038
     77  CD        45.9670   28.7130   32.7250 C.3   116  LYS116      0.0206
     78  CE        46.2040   30.0460   32.0340 C.3   116  LYS116      0.1093
     79  NZ        46.8690   31.0290   32.9350 N.3   116  LYS116     -0.1314
     80  N         52.0940   22.3990   35.8290 N.3   120  LYS120     -0.1245
     81  CA        52.5120   23.5230   36.6610 C.3   120  LYS120      0.1561
     82  C         53.3910   23.0510   37.8170 C.2   120  LYS120      0.2260
     83  O         54.0530   23.8510   38.4810 O.2   120  LYS120     -0.2867
     84  CB        51.2870   24.2620   37.2090 C.3   120  LYS120      0.0271
     85  CG        50.4020   24.9070   36.1420 C.3   120  LYS120      0.0035
     86  CD        50.9750   26.2360   35.6570 C.3   120  LYS120      0.0206
     87  CE        51.0950   26.2570   34.1410 C.3   120  LYS120      0.1093
     88  NZ        51.4960   27.5980   33.6200 N.3   120  LYS120     -0.1314
     89  N         41.4170   28.7200   36.5570 N.3   181  ASP181     -0.1239
     90  CA        42.5090   28.8020   35.5890 C.3   181  ASP181      0.1674
     91  C         42.8500   30.2530   35.2470 C.2   181  ASP181      0.2266
     92  O         44.0240   30.6190   35.1810 O.2   181  ASP181     -0.2867
     93  CB        42.1500   28.0250   34.3180 C.3   181  ASP181      0.1410
     94  CG        42.6670   26.5880   34.3340 C.2   181  ASP181      0.3668
     95  OD1       43.0230   26.0750   35.4160 O.co2 181  ASP181     -0.2456
     96  OD2       42.7470   25.8890   33.3010 O.co2 181  ASP181     -0.2456
     97  N         52.5840   27.8770   44.8510 N.3   215  CYS215     -0.1221
     98  CA        51.6920   27.7050   43.7110 C.3   215  CYS215      0.1808
     99  C         52.5680   27.2940   42.5310 C.2   215  CYS215      0.2602
    100  O         53.4180   26.4130   42.6820 O.2   215  CYS215     -0.2717
    101  CB        50.8790   28.9720   43.4180 C.3   215  CYS215      0.0970
    102  SG        51.6590   30.5510   43.8350 S.3   215  CYS215     -0.0800
    103  N         52.3830   27.9080   41.3660 N.am  216  SER216     -0.1938
    104  CA        53.2980   27.6490   40.2590 C.3   216  SER216      0.2055
    105  C         54.6620   28.2840   40.5430 C.2   216  SER216      0.2642
    106  O         55.6870   27.5940   40.5500 O.2   216  SER216     -0.2714
    107  CB        52.7310   28.1330   38.9230 C.3   216  SER216      0.2130
    108  OG        53.3700   27.4630   37.8460 O.3   216  SER216     -0.2179
    109  N         54.6590   29.5900   40.8090 N.am  217  ALA217     -0.1977
    110  CA        55.8880   30.3360   41.0830 C.3   217  ALA217      0.1597
    111  C         56.1020   30.6390   42.5730 C.2   217  ALA217      0.2287
    112  O         57.1970   31.0480   42.9790 O.2   217  ALA217     -0.2864
    113  CB        55.9140   31.6250   40.2680 C.3   217  ALA217      0.0319
    114  N         54.3800   33.0080   44.3790 N.3   219  ILE219     -0.1231
    115  CA        54.3250   34.4570   44.5940 C.3   219  ILE219      0.1692
    116  C         52.9100   35.0340   44.4680 C.2   219  ILE219      0.2593
    117  O         52.5200   35.8990   45.2530 O.2   219  ILE219     -0.2718
    118  CB        55.3170   35.2110   43.6460 C.3   219  ILE219      0.0266
    119  CG1       55.0690   34.8440   42.1730 C.3   219  ILE219      0.0019
    120  CG2       56.7730   34.9380   44.0530 C.3   219  ILE219      0.0020
    121  CD1       55.6430   35.8340   41.1770 C.3   219  ILE219      0.0001
    122  N         52.1500   34.5460   43.4860 N.am  220  GLY220     -0.1942
    123  CA        50.8420   35.0950   43.1720 C.3   220  GLY220      0.2014
    124  C         49.7710   34.7290   44.1800 C.2   220  GLY220      0.2638
    125  O         49.3680   35.5590   45.0050 O.2   220  GLY220     -0.2714
    126  N         49.3050   33.4860   44.1060 N.am  221  ARG221     -0.1977
    127  CA        48.3110   32.9710   45.0460 C.3   221  ARG221      0.1597
    128  C         48.9370   32.7570   46.4240 C.2   221  ARG221      0.2287
    129  O         48.2740   32.9340   47.4430 O.2   221  ARG221     -0.2864
    130  CB        47.6680   31.6720   44.5310 C.3   221  ARG221      0.0334
    131  CG        48.0550   31.2860   43.1110 C.3   221  ARG221      0.0492
    132  CD        46.8970   31.1110   42.1460 C.3   221  ARG221      0.2205
    133  NE        46.5280   29.7060   42.0130 N.pl3 221  ARG221     -0.0865
    134  CZ        46.3150   29.0720   40.8620 C.cat 221  ARG221      0.5346
    135  NH1       46.4200   29.7040   39.6990 N.pl3 221  ARG221      0.1354
    136  NH2       45.9910   27.7880   40.8770 N.pl3 221  ARG221      0.1354
    137  N         50.4420   39.1710   41.9510 N.3   262  GLN262     -0.1231
    138  CA        50.9150   39.3090   40.5740 C.3   262  GLN262      0.1698
    139  C         50.0660   40.2260   39.6930 C.2   262  GLN262      0.2592
    140  O         50.5640   40.7620   38.7020 O.2   262  GLN262     -0.2718
    141  CB        51.0640   37.9320   39.9180 C.3   262  GLN262      0.0381
    142  CG        52.4440   37.3150   40.0860 C.3   262  GLN262      0.0905
    143  CD        53.5490   38.1700   39.4840 C.2   262  GLN262      0.2608
    144  OE1       53.7320   38.1880   38.2650 O.2   262  GLN262     -0.2717
    145  NE2       54.2840   38.8810   40.3370 N.am  262  GLN262     -0.0878
    146  N         48.7930   40.3930   40.0440 N.am  263  THR263     -0.1953
    147  CA        47.8890   41.2590   39.2840 C.3   263  THR263      0.1897
    148  C         47.0970   42.1930   40.1990 C.2   263  THR263      0.2313
    149  O         47.0040   41.9620   41.4100 O.2   263  THR263     -0.2863
    150  CB        46.9020   40.4310   38.4130 C.3   263  THR263      0.1794
    151  OG1       46.1400   39.5490   39.2460 O.3   263  THR263     -0.2208
    152  CG2       47.6400   39.4900   37.4600 C.3   263  THR263      0.0378
    153  N         44.3520   40.3050   41.7990 N.3   266  GLN266     -0.1245
    154  CA        44.7950   39.5350   42.9610 C.3   266  GLN266      0.1566
    155  C         44.8520   40.4070   44.2140 C.2   266  GLN266      0.2260
    156  O         44.5250   39.9490   45.3100 O.2   266  GLN266     -0.2867
    157  CB        46.1510   38.8800   42.7000 C.3   266  GLN266      0.0367
    158  CG        46.0890   37.3650   42.6050 C.3   266  GLN266      0.0905
    159  CD        47.3570   36.7500   42.0390 C.2   266  GLN266      0.2608
    160  OE1       48.4500   37.2940   42.2030 O.2   266  GLN266     -0.2717
    161  NE2       47.2140   35.6070   41.3770 N.am  266  GLN266     -0.0878
@<TRIPOS>BOND
     1    74    73    2
     2    73    72    1
     3     9     8    1
     4    75    72    1
     5    75    76    1
     6    72    71    1
     7     8     7    1
     8    76    77    1
     9    78    77    1
    10    78    79    1
    11    71    64   am
    12     7     6    1
    13    46    45    1
    14    65    64    2
    15    96    94   ar
    16    64    63    1
    17    45    42    1
    18    88    87    1
    19     6     5    1
    20    87    86    1
    21    93    94    1
    22    93    90    1
    23    94    95   ar
    24    54    52   ar
    25    37    35   ar
    26    37    39   ar
    27    63    62    1
    28    63    66    1
    29    35    34   ar
    30     5     2    1
    31    42    41    1
    32    42    43    1
    33    21    20    2
    34    41    31   am
    35    92    91    2
    36    91    90    1
    37    52    53   ar
    38    52    51    1
    39    90    89    1
    40    86    85    1
    41    40    39    1
    42    51    48    1
    43    43    47   am
    44    43    44    2
    45    80    81    1
    46    39    38   ar
    47    66    67    1
    48    47    48    1
    49    30    31    1
    50    30    33    1
    51    30    29    1
    52     4     3    2
    53    31    32    2
    54    85    84    1
    55    34    33    1
    56    34    36   ar
    57    20    29   am
    58    20    19    1
    59     3     2    1
    60     2     1    1
    61    48    49    1
    62    81    84    1
    63    81    82    1
    64    13    12    2
    65    27    26    1
    66    38    36   ar
    67    19    22    1
    68    19    18    1
    69    23    22    1
    70    23    24    1
    71    67    68    1
    72   152   150    1
    73    12    18   am
    74    12    11    1
    75    82    83    2
    76   108   107    1
    77    69    68   ar
    78    49    55   am
    79    49    50    2
    80    24    25    1
    81    26    25    2
    82    26    28    1
    83   144   143    2
    84    68    70   ar
    85   150   151    1
    86   150   147    1
    87    55    56    1
    88    14    11    1
    89    14    15    1
    90   140   139    2
    91    11    10    1
    92   107   104    1
    93    61    59    1
    94   147   146    1
    95   147   148    1
    96   143   142    1
    97   143   145   am
    98    16    15    2
    99   139   146   am
   100   139   138    1
   101   135   134    1
   102    15    17   am
   103   141   142    1
   104   141   138    1
   105    56    59    1
   106    56    57    1
   107    59    60    1
   108   148   149    2
   109   104   105    1
   110   104   103    1
   111   113   110    1
   112   105   106    2
   113   105   109   am
   114   138   137    1
   115    57    58    2
   116   109   110    1
   117   134   136    1
   118   134   133    2
   119   110   111    1
   120   121   119    1
   121   103    99   am
   122   161   159   am
   123   153   154    1
   124   133   132    1
   125   159   160    2
   126   159   158    1
   127   132   131    1
   128   119   118    1
   129    99   100    2
   130    99    98    1
   131   111   112    2
   132   158   157    1
   133   157   154    1
   134   154   155    1
   135   131   130    1
   136   123   122    1
   137   123   124    1
   138   101    98    1
   139   101   102    1
   140   122   116   am
   141   118   120    1
   142   118   115    1
   143    98    97    1
   144   126   124   am
   145   126   127    1
   146   124   125    2
   147   155   156    2
   148   114   115    1
   149   116   115    1
   150   116   117    2
   151   130   127    1
   152   127   128    1
   153   128   129    2
