@<TRIPOS>MOLECULE
tmp/1nwwB00.pdb
 163 150 0 0 0
SMALL
GASTEIGER

@<TRIPOS>ATOM
      1  N          5.9650   -4.8110   18.3540 N.3    32  LEU32      -0.1245
      2  CA         5.8800   -4.4190   16.9360 C.3    32  LEU32       0.1561
      3  C          6.3080   -5.5170   16.0020 C.2    32  LEU32       0.2260
      4  O          5.7820   -5.6240   14.8910 O.2    32  LEU32      -0.2867
      5  CB         6.6800   -3.1410   16.6570 C.3    32  LEU32       0.0270
      6  CG         6.1280   -1.8400   17.2310 C.3    32  LEU32       0.0019
      7  CD1        6.9870   -0.6680   16.8700 C.3    32  LEU32       0.0001
      8  CD2        4.7490   -1.5880   16.7560 C.3    32  LEU32       0.0001
      9  N         -2.7600    8.0020   15.5870 N.3    50  TYR50      -0.1241
     10  CA        -1.4770    7.4790   15.1220 C.3    50  TYR50       0.1605
     11  C         -1.0790    8.2130   13.8630 C.2    50  TYR50       0.2264
     12  O         -1.8830    8.3080   12.9320 O.2    50  TYR50      -0.2867
     13  CB        -1.5890    5.9960   14.8300 C.3    50  TYR50       0.0534
     14  CG        -0.3900    5.3150   14.1980 C.ar   50  TYR50      -0.0201
     15  CD1        0.9100    5.5650   14.5900 C.ar   50  TYR50      -0.0009
     16  CD2       -0.5830    4.3860   13.2080 C.ar   50  TYR50      -0.0009
     17  CE1        1.9800    4.8700   14.0180 C.ar   50  TYR50       0.0417
     18  CE2        0.4500    3.7180   12.6190 C.ar   50  TYR50       0.0417
     19  CZ         1.7300    3.9260   13.0500 C.ar   50  TYR50       0.1957
     20  OH         2.7570    3.2160   12.4710 O.3    50  TYR50      -0.2866
     21  N          2.4230    8.3080   11.1890 N.3    52  ASN52      -0.1240
     22  CA         3.7810    8.3420   10.6040 C.3    52  ASN52       0.1653
     23  C          3.8480    9.6800    9.9020 C.2    52  ASN52       0.2266
     24  O          3.0940    9.9190    8.9540 O.2    52  ASN52      -0.2867
     25  CB         3.9230    7.1950    9.6240 C.3    52  ASN52       0.1155
     26  CG         4.0150    5.8670   10.3500 C.2    52  ASN52       0.2627
     27  OD1        4.9350    5.6820   11.1170 O.2    52  ASN52      -0.2716
     28  ND2        3.0670    4.9650   10.1170 N.am   52  ASN52      -0.0877
     29  N          2.9760   10.9490    6.3330 N.3    55  LEU55      -0.1245
     30  CA         1.7160   10.4870    5.7690 C.3    55  LEU55       0.1561
     31  C          0.5700   10.9730    6.6630 C.2    55  LEU55       0.2260
     32  O          0.7700   11.4340    7.7780 O.2    55  LEU55      -0.2867
     33  CB         1.7290    8.9720    5.7180 C.3    55  LEU55       0.0270
     34  CG         2.8430    8.3660    4.8470 C.3    55  LEU55       0.0019
     35  CD1        2.9840    6.9080    5.0220 C.3    55  LEU55       0.0001
     36  CD2        2.6220    8.6870    3.4080 C.3    55  LEU55       0.0001
     37  N         -0.3480   -1.4890    6.8950 N.3    71  LEU71      -0.1245
     38  CA         1.1080   -1.5080    6.9860 C.3    71  LEU71       0.1561
     39  C          1.6920   -2.8880    6.9740 C.2    71  LEU71       0.2260
     40  O          2.6700   -3.1490    6.2410 O.2    71  LEU71      -0.2867
     41  CB         1.5160   -0.8110    8.3180 C.3    71  LEU71       0.0270
     42  CG         2.9580   -1.0480    8.8080 C.3    71  LEU71       0.0019
     43  CD1        3.9180   -0.3850    7.8670 C.3    71  LEU71       0.0001
     44  CD2        3.1840   -0.4850   10.1850 C.3    71  LEU71       0.0001
     45  N          4.7790   -4.5170    4.7520 N.3    75  MET75      -0.1245
     46  CA         6.0910   -4.6530    5.3400 C.3    75  MET75       0.1570
     47  C          6.0720   -5.4110    6.6310 C.2    75  MET75       0.2261
     48  O          5.0160   -5.5810    7.2700 O.2    75  MET75      -0.2867
     49  CB         6.7310   -3.3200    5.6180 C.3    75  MET75       0.0387
     50  CG         6.1290   -2.5780    6.6640 C.3    75  MET75       0.0595
     51  SD         6.7710   -0.7840    6.7640 S.3    75  MET75      -0.1393
     52  CE         6.4930   -0.2530    5.1590 C.3    75  MET75       0.0692
     53  N          8.1330   -5.5060   10.3190 N.3    77  ILE77      -0.1245
     54  CA         9.0700   -4.8900   11.2550 C.3    77  ILE77       0.1561
     55  C          9.9100   -6.0770   11.8070 C.2    77  ILE77       0.2260
     56  O          9.4280   -6.8940   12.5800 O.2    77  ILE77      -0.2867
     57  CB         8.3540   -4.1440   12.3630 C.3    77  ILE77       0.0252
     58  CG1        7.5320   -3.0020   11.7790 C.3    77  ILE77       0.0019
     59  CG2        9.3580   -3.6200   13.3670 C.3    77  ILE77       0.0019
     60  CD1        6.6390   -2.2520   12.7920 C.3    77  ILE77       0.0001
     61  N         15.0240    5.6240   18.0640 N.3    96  ARG96      -0.1245
     62  CA        15.1330    4.2220   17.7040 C.3    96  ARG96       0.1563
     63  C         15.5820    3.9980   16.2990 C.2    96  ARG96       0.2260
     64  O         15.6230    4.9100   15.4850 O.2    96  ARG96      -0.2867
     65  CB        13.8970    3.4580   17.9800 C.3    96  ARG96       0.0307
     66  CG        12.7960    3.6220   17.3170 C.3    96  ARG96       0.0489
     67  CD        11.4830    3.0850   18.2540 C.3    96  ARG96       0.2205
     68  NE        10.5450    2.8940   17.2440 N.pl3  96  ARG96      -0.0865
     69  CZ         9.5350    3.6890   16.9440 C.cat  96  ARG96       0.5346
     70  NH1        9.2090    4.7480   17.6520 N.pl3  96  ARG96       0.1354
     71  NH2        8.8140    3.3900   15.8900 N.pl3  96  ARG96       0.1354
     72  N         14.1510    1.0830   13.4910 N.3    98  ASP98      -0.1239
     73  CA        13.2980   -0.0550   13.1590 C.3    98  ASP98       0.1674
     74  C         13.8000   -0.6180   11.8610 C.2    98  ASP98       0.2266
     75  O         14.0100    0.1140   10.8990 O.2    98  ASP98      -0.2867
     76  CB        11.8340    0.3300   13.0140 C.3    98  ASP98       0.1410
     77  CG        11.1870    0.8230   14.2960 C.2    98  ASP98       0.3668
     78  OD1       11.8330    1.0160   15.3160 O.co2  98  ASP98      -0.2456
     79  OD2        9.9290    1.0550   14.3020 O.co2  98  ASP98      -0.2456
     80  N         12.9020   -2.4960    8.6880 N.3   100  LEU100     -0.1245
     81  CA        11.7110   -2.6840    7.8750 C.3   100  LEU100      0.1561
     82  C         12.0340   -3.4710    6.6140 C.2   100  LEU100      0.2260
     83  O         12.9460   -3.1240    5.8910 O.2   100  LEU100     -0.2867
     84  CB        11.0780   -1.3420    7.5060 C.3   100  LEU100      0.0270
     85  CG        10.1140   -0.6100    8.4600 C.3   100  LEU100      0.0019
     86  CD1        8.7430   -1.2120    8.4790 C.3   100  LEU100      0.0001
     87  CD2       10.6830   -0.4940    9.8440 C.3   100  LEU100      0.0001
     88  N         15.5850    2.0570    9.4810 N.3   111  LEU111     -0.1245
     89  CA        14.9710    3.3840    9.5350 C.3   111  LEU111      0.1561
     90  C         15.1800    4.0400   10.8810 C.2   111  LEU111      0.2260
     91  O         14.7530    3.5390   11.9090 O.2   111  LEU111     -0.2867
     92  CB        13.4910    3.2310    9.2460 C.3   111  LEU111      0.0270
     93  CG        12.6480    4.5170    9.1500 C.3   111  LEU111      0.0019
     94  CD1       13.1530    5.3990    8.0270 C.3   111  LEU111      0.0001
     95  CD2       11.1720    4.1830    8.9900 C.3   111  LEU111      0.0001
     96  N         14.2200    6.6720   13.5810 N.3   113  ILE113     -0.1245
     97  CA        12.9600    7.2580   13.9760 C.3   113  ILE113      0.1561
     98  C         13.0970    7.9500   15.3270 C.2   113  ILE113      0.2260
     99  O         13.7150    7.3870   16.2570 O.2   113  ILE113     -0.2867
    100  CB        11.8670    6.1390   14.1090 C.3   113  ILE113      0.0252
    101  CG1       11.6960    5.4010   12.7940 C.3   113  ILE113      0.0019
    102  CG2       10.5460    6.6990   14.6210 C.3   113  ILE113      0.0019
    103  CD1       10.9760    4.0780   12.9250 C.3   113  ILE113      0.0001
    104  N          0.3190    8.5950   19.1660 N.3   127  TRP127     -0.1241
    105  CA         1.6240    8.0340   18.7640 C.3   127  TRP127      0.1605
    106  C          2.0060    8.6870   17.4380 C.2   127  TRP127      0.2264
    107  O          1.2990    8.5110   16.4440 O.2   127  TRP127     -0.2867
    108  CB         1.5570    6.5170   18.6240 C.3   127  TRP127      0.0550
    109  CG         2.7940    5.8560   18.0840 C.ar  127  TRP127      0.0003
    110  CD1        4.0690    6.3240   18.0910 C.ar  127  TRP127      0.0946
    111  CD2        2.8220    4.5850   17.4180 C.ar  127  TRP127      0.0152
    112  NE1        4.8830    5.4170   17.4610 N.ar  127  TRP127     -0.2442
    113  CE2        4.1480    4.3330   17.0480 C.ar  127  TRP127      0.0810
    114  CE3        1.8440    3.6470   17.0980 C.ar  127  TRP127      0.0012
    115  CZ2        4.5180    3.2050   16.3750 C.ar  127  TRP127      0.0191
    116  CZ3        2.2100    2.4960   16.4240 C.ar  127  TRP127      0.0001
    117  CH2        3.5600    2.2890   16.0760 C.ar  127  TRP127      0.0015
    118  N          5.3940    9.1150   14.8760 N.3   129  ASP129     -0.1239
    119  CA         6.7830    8.7810   14.5260 C.3   129  ASP129      0.1674
    120  C          7.2500    9.7040   13.4190 C.2   129  ASP129      0.2266
    121  O          6.5880    9.8460   12.3770 O.2   129  ASP129     -0.2867
    122  CB         6.8480    7.3310   14.0700 C.3   129  ASP129      0.1410
    123  CG         7.0240    6.3100   15.1680 C.2   129  ASP129      0.3668
    124  OD1        7.3740    6.6660   16.3130 O.co2 129  ASP129     -0.2456
    125  OD2        6.8210    5.0910   14.8870 O.co2 129  ASP129     -0.2456
    126  N         10.3710   10.6320   10.7580 N.3   131  PHE131     -0.1241
    127  CA        11.4360   10.0220    9.9750 C.3   131  PHE131      0.1605
    128  C         11.3290   10.5070    8.5320 C.2   131  PHE131      0.2264
    129  O         10.3490   11.1510    8.1340 O.2   131  PHE131     -0.2867
    130  CB        11.3480    8.4730   10.0290 C.3   131  PHE131      0.0534
    131  CG        10.0320    7.9250    9.5160 C.ar  131  PHE131     -0.0203
    132  CD1        9.8720    7.5990    8.1890 C.ar  131  PHE131     -0.0042
    133  CD2        8.9500    7.7070   10.3490 C.ar  131  PHE131     -0.0042
    134  CE1        8.6840    7.0850    7.7080 C.ar  131  PHE131     -0.0003
    135  CE2        7.7730    7.2010    9.8730 C.ar  131  PHE131     -0.0003
    136  CZ         7.6660    6.8790    8.5420 C.ar  131  PHE131     -0.0000
    137  N         10.7720    9.4970    4.6980 N.3   133  LEU133     -0.1245
    138  CA        10.1400    8.4170    3.9660 C.3   133  LEU133      0.1561
    139  C         10.9010    8.0630    2.6880 C.2   133  LEU133      0.2260
    140  O         10.9680    6.8870    2.3130 O.2   133  LEU133     -0.2867
    141  CB         8.6920    8.7920    3.6460 C.3   133  LEU133      0.0270
    142  CG         7.8600    7.7080    2.9520 C.3   133  LEU133      0.0019
    143  CD1        7.7410    6.4420    3.8050 C.3   133  LEU133      0.0001
    144  CD2        6.4810    8.2340    2.6300 C.3   133  LEU133      0.0001
    145  N         13.8790    5.4630    2.6900 N.3   136  PHE136     -0.1241
    146  CA        13.3060    4.1380    2.9310 C.3   136  PHE136      0.1605
    147  C         12.7110    3.5890    1.6290 C.2   136  PHE136      0.2264
    148  O         13.0190    2.4740    1.2050 O.2   136  PHE136     -0.2867
    149  CB        12.2680    4.2850    4.0270 C.3   136  PHE136      0.0534
    150  CG        11.4670    3.1080    4.3470 C.ar  136  PHE136     -0.0203
    151  CD1       11.8700    1.8050    4.1540 C.ar  136  PHE136     -0.0042
    152  CD2       10.2910    3.3420    5.0230 C.ar  136  PHE136     -0.0042
    153  CE1       11.0810    0.7660    4.5030 C.ar  136  PHE136     -0.0003
    154  CE2        9.5000    2.2990    5.4000 C.ar  136  PHE136     -0.0003
    155  CZ         9.8870    1.0120    5.1350 C.ar  136  PHE136     -0.0000
    156  N          5.9210    4.4380   -1.2190 N.3   144  LEU144     -0.1245
    157  CA         5.1390    4.3700   -0.0210 C.3   144  LEU144      0.1561
    158  C          4.1450    5.4950    0.2070 C.2   144  LEU144      0.2260
    159  O          3.5410    5.5240    1.2800 O.2   144  LEU144     -0.2867
    160  CB         6.1380    4.3250    1.1180 C.3   144  LEU144      0.0270
    161  CG         7.1290    3.1390    1.1020 C.3   144  LEU144      0.0019
    162  CD1        8.1040    3.1540    2.2600 C.3   144  LEU144      0.0001
    163  CD2        6.3000    1.9380    1.1910 C.3   144  LEU144      0.0001
@<TRIPOS>BOND
     1   156   157    1
     2   157   158    1
     3   157   160    1
     4   158   159    2
     5   161   160    1
     6   161   163    1
     7   161   162    1
     8   148   147    2
     9   147   146    1
    10   140   139    2
    11   144   142    1
    12   139   138    1
    13   145   146    1
    14   146   149    1
    15   142   141    1
    16   142   143    1
    17    36    34    1
    18   141   138    1
    19   138   137    1
    20   149   150    1
    21   151   150   ar
    22   151   153   ar
    23   150   152   ar
    24   153   155   ar
    25    45    46    1
    26    34    35    1
    27    34    33    1
    28   152   154   ar
    29   155   154   ar
    30    52    51    1
    31    46    49    1
    32    46    47    1
    33    49    50    1
    34    33    30    1
    35    30    29    1
    36    30    31    1
    37    83    82    2
    38    40    39    2
    39    82    81    1
    40    47    48    2
    41    31    32    2
    42    50    51    1
    43    37    38    1
    44    39    38    1
    45    38    41    1
    46    84    81    1
    47    84    85    1
    48   134   132   ar
    49   134   136   ar
    50    43    42    1
    51    81    80    1
    52    94    93    1
    53   129   128    2
    54   132   131   ar
    55    41    42    1
    56    85    86    1
    57    85    87    1
    58   128   127    1
    59   136   135   ar
    60    42    44    1
    61    24    23    2
    62    95    93    1
    63    93    92    1
    64    92    89    1
    65    88    89    1
    66   131   130    1
    67   131   133   ar
    68    89    90    1
    69    25    26    1
    70    25    22    1
    71   135   133   ar
    72    23    22    1
    73   127   130    1
    74   127   126    1
    75    28    26   am
    76    53    54    1
    77    26    27    2
    78    22    21    1
    79    90    91    2
    80    75    74    2
    81    54    55    1
    82    54    57    1
    83    58    57    1
    84    58    60    1
    85    55    56    2
    86    74    73    1
    87    57    59    1
    88   121   120    2
    89    20    19    1
    90    18    19   ar
    91    18    16   ar
    92   101   103    1
    93   101   100    1
    94    12    11    2
    95    76    73    1
    96    76    77    1
    97    19    17   ar
    98    73    72    1
    99    16    14   ar
   100   120   119    1
   101    96    97    1
   102    11    10    1
   103    97   100    1
   104    97    98    1
   105    17    15   ar
   106   122   119    1
   107   122   123    1
   108   100   102    1
   109    14    15   ar
   110    14    13    1
   111    77    79   ar
   112    77    78   ar
   113   119   118    1
   114    13    10    1
   115   125   123   ar
   116     4     3    2
   117    10     9    1
   118   123   124   ar
   119    98    99    2
   120    64    63    2
   121    71    69    1
   122     3     2    1
   123   117   115   ar
   124   117   116   ar
   125    63    62    1
   126   115   113   ar
   127   116   114   ar
   128   107   106    2
   129     5     2    1
   130     5     6    1
   131     8     6    1
   132     7     6    1
   133     2     1    1
   134    69    68    2
   135    69    70    1
   136   113   111   ar
   137   113   112   ar
   138   114   111   ar
   139    68    67    1
   140    66    65    1
   141    66    67    1
   142   111   109   ar
   143   106   105    1
   144   112   110   ar
   145    62    65    1
   146    62    61    1
   147   109   110   ar
   148   109   108    1
   149   108   105    1
   150   105   104    1
