@<TRIPOS>MOLECULE
tmp/1nx0A01.pdb
 124 122 0 0 0
SMALL
GASTEIGER

@<TRIPOS>ATOM
      1  N          0.6400   30.1940   40.2720 N.3    75  ASN75      -0.1240
      2  CA         0.2000   28.8480   39.9160 C.3    75  ASN75       0.1653
      3  C          1.2370   27.8230   40.3830 C.2    75  ASN75       0.2266
      4  O          0.8990   26.8250   41.0140 O.2    75  ASN75      -0.2867
      5  CB         0.0160   28.7280   38.3940 C.3    75  ASN75       0.1155
      6  CG        -1.3870   29.1070   37.9300 C.2    75  ASN75       0.2627
      7  OD1       -1.6140   29.3350   36.7390 O.2    75  ASN75      -0.2716
      8  ND2       -2.3350   29.1570   38.8610 N.am   75  ASN75      -0.0877
      9  N          1.1110   27.3810   44.1700 N.3    78  LYS78      -0.1231
     10  CA        -0.0280   26.5550   44.5420 C.3    78  LYS78       0.1693
     11  C          0.1150   25.0900   44.1270 C.2    78  LYS78       0.2592
     12  O         -0.1810   24.1860   44.9090 O.2    78  LYS78      -0.2718
     13  CB        -1.3020   27.1450   43.9340 C.3    78  LYS78       0.0285
     14  CG        -2.5860   26.4970   44.4220 C.3    78  LYS78       0.0035
     15  CD        -3.8240   27.1730   43.8280 C.3    78  LYS78       0.0206
     16  CE        -3.8330   27.0870   42.3080 C.3    78  LYS78       0.1093
     17  NZ        -5.1140   27.6030   41.7330 N.3    78  LYS78      -0.1314
     18  N          0.5630   24.8510   42.8990 N.am   79  TRP79      -0.1976
     19  CA         0.7270   23.4850   42.4230 C.3    79  TRP79       0.1640
     20  C          1.8600   22.7670   43.1400 C.2    79  TRP79       0.2290
     21  O          1.8310   21.5490   43.3020 O.2    79  TRP79      -0.2864
     22  CB         0.9940   23.4780   40.9220 C.3    79  TRP79       0.0576
     23  CG        -0.1250   24.0710   40.1350 C.ar   79  TRP79       0.0006
     24  CD1       -1.4570   24.0780   40.4750 C.ar   79  TRP79       0.0946
     25  CD2       -0.0360   24.6790   38.8470 C.ar   79  TRP79       0.0152
     26  NE1       -2.1950   24.6460   39.4730 N.ar   79  TRP79      -0.2442
     27  CE2       -1.3530   25.0240   38.4580 C.ar   79  TRP79       0.0810
     28  CE3        1.0230   24.9660   37.9800 C.ar   79  TRP79       0.0012
     29  CZ2       -1.6390   25.6390   37.2370 C.ar   79  TRP79       0.0191
     30  CZ3        0.7400   25.5790   36.7630 C.ar   79  TRP79       0.0001
     31  CH2       -0.5830   25.9090   36.4050 C.ar   79  TRP79       0.0015
     32  N         -5.8620   20.6750   41.9700 N.3   106  ALA106     -0.1231
     33  CA        -5.4860   21.8970   41.2650 C.3   106  ALA106      0.1694
     34  C         -6.7290   22.4690   40.5750 C.2   106  ALA106      0.2593
     35  O         -6.6660   23.4640   39.8430 O.2   106  ALA106     -0.2718
     36  CB        -4.4030   21.6040   40.2460 C.3   106  ALA106      0.0304
     37  N         -7.8690   21.8350   40.8220 N.am  107  GLY107     -0.1942
     38  CA        -9.1040   22.3060   40.2230 C.3   107  GLY107      0.2014
     39  C         -9.3640   21.7000   38.8590 C.2   107  GLY107      0.2639
     40  O        -10.3080   22.1000   38.1700 O.2   107  GLY107     -0.2714
     41  N         -8.5400   20.7310   38.4680 N.am  108  PHE108     -0.1959
     42  CA        -8.7090   20.0810   37.1740 C.3   108  PHE108      0.1771
     43  C         -9.5120   18.7940   37.2710 C.2   108  PHE108      0.2620
     44  O         -9.2200   17.9170   38.0870 O.2   108  PHE108     -0.2715
     45  CB        -7.3550   19.7580   36.5330 C.3   108  PHE108      0.0574
     46  CG        -6.5740   20.9630   36.1320 C.ar  108  PHE108     -0.0200
     47  CD1       -5.5850   21.4750   36.9580 C.ar  108  PHE108     -0.0042
     48  CD2       -6.8380   21.6010   34.9310 C.ar  108  PHE108     -0.0042
     49  CE1       -4.8630   22.6110   36.5900 C.ar  108  PHE108     -0.0003
     50  CE2       -6.1280   22.7270   34.5540 C.ar  108  PHE108     -0.0003
     51  CZ        -5.1310   23.2370   35.3910 C.ar  108  PHE108     -0.0000
     52  N        -10.5230   18.6810   36.4230 N.am  109  HIS109     -0.1959
     53  CA       -11.3360   17.4870   36.4060 C.3   109  HIS109      0.1787
     54  C        -11.4030   17.0120   34.9770 C.2   109  HIS109      0.2620
     55  O        -12.0460   17.6300   34.1270 O.2   109  HIS109     -0.2715
     56  CB       -12.7180   17.7790   36.9920 C.3   109  HIS109      0.0785
     57  CG       -12.6590   18.2260   38.4160 C.ar  109  HIS109      0.0821
     58  ND1      -12.4860   19.5470   38.7700 N.ar  109  HIS109     -0.2267
     59  CD2      -12.6020   17.5190   39.5670 C.ar  109  HIS109      0.1154
     60  CE1      -12.3190   19.6320   40.0780 C.ar  109  HIS109      0.1986
     61  NE2      -12.3850   18.4150   40.5850 N.ar  109  HIS109     -0.2212
     62  N        -10.6970   15.9170   34.7210 N.am  110  LEU110     -0.1963
     63  CA       -10.6170   15.3410   33.3930 C.3   110  LEU110      0.1728
     64  C        -11.3360   13.9930   33.3710 C.2   110  LEU110      0.2616
     65  O        -12.4830   13.8880   33.7940 O.2   110  LEU110     -0.2715
     66  CB        -9.1400   15.1830   33.0100 C.3   110  LEU110      0.0311
     67  CG        -8.2650   16.3730   33.4430 C.3   110  LEU110      0.0022
     68  CD1       -6.8160   16.1880   32.9820 C.3   110  LEU110      0.0001
     69  CD2       -8.8510   17.6640   32.8650 C.3   110  LEU110      0.0001
     70  N        -10.6580   12.9660   32.8750 N.am  111  ASN111     -0.1972
     71  CA       -11.2350   11.6320   32.8080 C.3   111  ASN111      0.1688
     72  C        -10.1330   10.6230   32.5200 C.2   111  ASN111      0.2292
     73  O         -9.0090   11.0030   32.1750 O.2   111  ASN111     -0.2864
     74  CB       -12.3010   11.5550   31.7120 C.3   111  ASN111      0.1181
     75  CG       -11.7530   11.8970   30.3450 C.2   111  ASN111      0.2629
     76  OD1      -10.6010   11.5930   30.0360 O.2   111  ASN111     -0.2716
     77  ND2      -12.5820   12.5200   29.5080 N.am  111  ASN111     -0.0877
     78  N         -8.0800   11.3230   29.3850 N.3   114  LEU114     -0.1245
     79  CA        -7.1230   12.4200   29.4160 C.3   114  LEU114      0.1561
     80  C         -5.9430   12.0300   30.2910 C.2   114  LEU114      0.2260
     81  O         -4.7930   12.1260   29.8630 O.2   114  LEU114     -0.2867
     82  CB        -7.7450   13.7120   29.9600 C.3   114  LEU114      0.0270
     83  CG        -8.3960   14.7380   29.0170 C.3   114  LEU114      0.0019
     84  CD1       -7.7560   14.6630   27.6480 C.3   114  LEU114      0.0001
     85  CD2       -9.8850   14.4870   28.9210 C.3   114  LEU114      0.0001
     86  N         -3.6110   24.4630   32.2520 N.3   142  ASP142     -0.1239
     87  CA        -4.2920   25.6800   32.6930 C.3   142  ASP142      0.1674
     88  C         -4.4200   26.6340   31.4980 C.2   142  ASP142      0.2266
     89  O         -5.5010   27.1650   31.2190 O.2   142  ASP142     -0.2867
     90  CB        -3.4890   26.3430   33.8230 C.3   142  ASP142      0.1410
     91  CG        -3.9740   27.7470   34.1550 C.2   142  ASP142      0.3668
     92  OD1       -5.0580   27.8920   34.7530 O.co2 142  ASP142     -0.2456
     93  OD2       -3.2680   28.7190   33.8140 O.co2 142  ASP142     -0.2456
     94  N         -7.0380   25.4150   28.9830 N.3   145  PHE145     -0.1227
     95  CA        -8.4130   25.5850   29.4480 C.3   145  PHE145      0.1736
     96  C         -8.8170   27.0490   29.2380 C.2   145  PHE145      0.2595
     97  O         -9.9050   27.3350   28.7400 O.2   145  PHE145     -0.2718
     98  CB        -8.5290   25.2360   30.9320 C.3   145  PHE145      0.0547
     99  CG        -9.0750   23.8590   31.1960 C.ar  145  PHE145     -0.0202
    100  CD1      -10.4180   23.5760   30.9750 C.ar  145  PHE145     -0.0042
    101  CD2       -8.2540   22.8490   31.6840 C.ar  145  PHE145     -0.0042
    102  CE1      -10.9370   22.3030   31.2410 C.ar  145  PHE145     -0.0003
    103  CE2       -8.7640   21.5710   31.9540 C.ar  145  PHE145     -0.0003
    104  CZ       -10.1070   21.3000   31.7320 C.ar  145  PHE145     -0.0000
    105  N         -7.9300   27.9690   29.6160 N.am  146  ARG146     -0.1980
    106  CA        -8.1940   29.3980   29.4580 C.3   146  ARG146      0.1597
    107  C         -8.3290   29.7370   27.9860 C.2   146  ARG146      0.2287
    108  O         -9.1530   30.5650   27.6090 O.2   146  ARG146     -0.2864
    109  CB        -7.0680   30.2480   30.0780 C.3   146  ARG146      0.0334
    110  CG        -7.0470   30.2490   31.6020 C.3   146  ARG146      0.0492
    111  CD        -5.9820   31.1940   32.1880 C.3   146  ARG146      0.2205
    112  NE        -4.6060   30.7900   31.8800 N.pl3 146  ARG146     -0.0865
    113  CZ        -3.8660   31.3130   30.9040 C.cat 146  ARG146      0.5346
    114  NH1       -4.3610   32.2700   30.1310 N.pl3 146  ARG146      0.1354
    115  NH2       -2.6240   30.8860   30.7050 N.pl3 146  ARG146      0.1354
    116  N        -11.9460   28.4800   26.9860 N.3   149  LYS149     -0.1245
    117  CA       -12.9210   29.3680   27.6000 C.3   149  LYS149      0.1561
    118  C        -12.9540   30.7400   26.9230 C.2   149  LYS149      0.2260
    119  O        -14.0200   31.2330   26.5580 O.2   149  LYS149     -0.2867
    120  CB       -12.6160   29.5080   29.0970 C.3   149  LYS149      0.0271
    121  CG       -12.8560   28.2080   29.8780 C.3   149  LYS149      0.0035
    122  CD       -12.4410   28.2920   31.3500 C.3   149  LYS149      0.0206
    123  CE       -10.9230   28.4070   31.5050 C.3   149  LYS149      0.1093
    124  NZ       -10.4610   28.2130   32.9110 N.3   149  LYS149     -0.1314
@<TRIPOS>BOND
     1   119   118    2
     2   118   117    1
     3   116   117    1
     4   117   120    1
     5   108   107    2
     6    84    83    1
     7   107   106    1
     8    97    96    2
     9    85    83    1
    10    94    95    1
    11    83    82    1
    12   120   121    1
    13    96    95    1
    14    96   105   am
    15    78    79    1
    16    79    82    1
    17    79    80    1
    18    95    98    1
    19   106   105    1
    20   106   109    1
    21    77    75   am
    22    81    80    2
    23   121   122    1
    24    76    75    2
    25   109   110    1
    26   114   113    1
    27    75    74    1
    28   115   113    1
    29   113   112    2
    30    98    99    1
    31   100    99   ar
    32   100   102   ar
    33    99   101   ar
    34    89    88    2
    35   102   104   ar
    36   122   123    1
    37    88    87    1
    38   123   124    1
    39   110   111    1
    40   101   103   ar
    41    74    71    1
    42   104   103   ar
    43   112   111    1
    44    73    72    2
    45    86    87    1
    46    72    71    1
    47    87    90    1
    48    71    70    1
    49    69    67    1
    50    70    64   am
    51    68    67    1
    52    66    63    1
    53    66    67    1
    54    64    63    1
    55    64    65    2
    56    63    62    1
    57    93    91   ar
    58    90    91    1
    59    55    54    2
    60    91    92   ar
    61    50    48   ar
    62    50    51   ar
    63    62    54   am
    64    48    46   ar
    65    54    53    1
    66    51    49   ar
    67    46    45    1
    68    46    47   ar
    69    31    30   ar
    70    31    29   ar
    71    53    52    1
    72    53    56    1
    73    52    43   am
    74    45    42    1
    75    49    47   ar
    76     7     6    2
    77    30    28   ar
    78    56    57    1
    79    42    43    1
    80    42    41    1
    81    29    27   ar
    82    43    44    2
    83     6     5    1
    84     6     8   am
    85    28    25   ar
    86    40    39    2
    87     5     2    1
    88    57    58   ar
    89    57    59   ar
    90    27    25   ar
    91    27    26   ar
    92    41    39   am
    93    58    60   ar
    94    25    23   ar
    95    39    38    1
    96    26    24   ar
    97    59    61   ar
    98    35    34    2
    99     2     1    1
   100     2     3    1
   101    60    61   ar
   102    23    24   ar
   103    23    22    1
   104    38    37    1
   105    36    33    1
   106     3     4    2
   107    34    37   am
   108    34    33    1
   109    22    19    1
   110    33    32    1
   111    17    16    1
   112    16    15    1
   113    19    18    1
   114    19    20    1
   115    18    11   am
   116    20    21    2
   117    15    14    1
   118    13    14    1
   119    13    10    1
   120    11    10    1
   121    11    12    2
   122     9    10    1
