@<TRIPOS>MOLECULE
tmp/1nx1B00.pdb
 188 181 0 0 0
SMALL
GASTEIGER

@<TRIPOS>ATOM
      1  N         15.3530    6.7820   46.3830 N.3     6  PHE6       -0.1241
      2  CA        15.2050    8.0770   47.0180 C.3     6  PHE6        0.1605
      3  C         14.6240    7.9200   48.4440 C.2     6  PHE6        0.2264
      4  O         15.0330    8.6480   49.3310 O.2     6  PHE6       -0.2867
      5  CB        14.3310    9.0180   46.1750 C.3     6  PHE6        0.0534
      6  CG        14.6480   10.4840   46.3950 C.ar    6  PHE6       -0.0203
      7  CD1       15.7490   11.0700   45.7780 C.ar    6  PHE6       -0.0042
      8  CD2       13.8980   11.2450   47.2660 C.ar    6  PHE6       -0.0042
      9  CE1       16.0960   12.4180   46.0380 C.ar    6  PHE6       -0.0003
     10  CE2       14.2350   12.5860   47.5330 C.ar    6  PHE6       -0.0003
     11  CZ        15.3230   13.1630   46.9220 C.ar    6  PHE6       -0.0000
     12  N         17.6090    7.3760   50.6290 N.3     9  LEU9       -0.1245
     13  CA        18.3630    8.6200   50.8340 C.3     9  LEU9        0.1561
     14  C         17.6230    9.5420   51.8250 C.2     9  LEU9        0.2260
     15  O         18.2280   10.1600   52.7270 O.2     9  LEU9       -0.2867
     16  CB        18.5010    9.3290   49.4810 C.3     9  LEU9        0.0270
     17  CG        19.5010   10.4750   49.3160 C.3     9  LEU9        0.0019
     18  CD1       20.9420    9.9250   49.4610 C.3     9  LEU9        0.0001
     19  CD2       19.3160   11.0880   47.9200 C.3     9  LEU9        0.0001
     20  N         17.8030    9.1590   55.5930 N.3    12  GLN12      -0.1231
     21  CA        19.0260    9.7020   56.1590 C.3    12  GLN12       0.1698
     22  C         18.9080   11.2150   56.3310 C.2    12  GLN12       0.2592
     23  O         19.5000   11.7820   57.2210 O.2    12  GLN12      -0.2718
     24  CB        20.2270    9.4220   55.2500 C.3    12  GLN12       0.0381
     25  CG        20.6310    7.9660   55.1420 C.3    12  GLN12       0.0905
     26  CD        20.8870    7.2810   56.5080 C.2    12  GLN12       0.2608
     27  OE1       21.6890    7.7480   57.3230 O.2    12  GLN12      -0.2717
     28  NE2       20.2250    6.1630   56.7340 N.am   12  GLN12      -0.0878
     29  N         18.1350   11.8770   55.4850 N.am   13  LEU13      -0.1980
     30  CA        18.0220   13.3280   55.5620 C.3    13  LEU13       0.1596
     31  C         16.9010   13.8590   56.4370 C.2    13  LEU13       0.2287
     32  O         16.9900   14.9730   56.9450 O.2    13  LEU13      -0.2864
     33  CB        17.8540   13.8770   54.1510 C.3    13  LEU13       0.0297
     34  CG        19.0090   13.5850   53.1830 C.3    13  LEU13       0.0022
     35  CD1       18.5630   13.6930   51.7550 C.3    13  LEU13       0.0001
     36  CD2       20.1310   14.5530   53.4360 C.3    13  LEU13       0.0001
     37  N         20.4550   21.1480   54.6120 N.3    28  ILE28      -0.1231
     38  CA        20.7590   20.2580   53.5080 C.3    28  ILE28       0.1692
     39  C         21.1410   21.0670   52.2630 C.2    28  ILE28       0.2591
     40  O         22.1550   20.7780   51.6250 O.2    28  ILE28      -0.2718
     41  CB        19.5340   19.3590   53.1780 C.3    28  ILE28       0.0266
     42  CG1       19.3440   18.3260   54.2890 C.3    28  ILE28       0.0019
     43  CG2       19.6770   18.7130   51.8440 C.3    28  ILE28       0.0020
     44  CD1       17.8870   17.8140   54.3920 C.3    28  ILE28       0.0001
     45  N         20.3220   22.0600   51.9180 N.am   29  LEU29      -0.1980
     46  CA        20.5900   22.8780   50.7350 C.3    29  LEU29       0.1596
     47  C         21.9460   23.5800   50.8350 C.2    29  LEU29       0.2287
     48  O         22.6780   23.6540   49.8310 O.2    29  LEU29      -0.2864
     49  CB        19.4880   23.9180   50.5310 C.3    29  LEU29       0.0297
     50  CG        18.2910   23.7260   49.5510 C.3    29  LEU29       0.0022
     51  CD1       18.1470   22.2960   49.0600 C.3    29  LEU29       0.0001
     52  CD2       17.0150   24.2260   50.2180 C.3    29  LEU29       0.0001
     53  N         24.6330   22.6410   52.6320 N.3    31  LYS31      -0.1231
     54  CA        25.7470   21.6910   52.4870 C.3    31  LYS31       0.1693
     55  C         25.9290   21.3430   51.0040 C.2    31  LYS31       0.2592
     56  O         27.0710   21.1550   50.5430 O.2    31  LYS31      -0.2718
     57  CB        25.5040   20.4140   53.2840 C.3    31  LYS31       0.0285
     58  CG        25.6710   20.5800   54.7680 C.3    31  LYS31       0.0035
     59  CD        25.2960   19.3140   55.4940 C.3    31  LYS31       0.0206
     60  CE        25.6390   19.4200   56.9460 C.3    31  LYS31       0.1093
     61  NZ        24.8450   18.4840   57.8040 N.3    31  LYS31      -0.1314
     62  N         24.8280   21.2690   50.2530 N.am   32  VAL32      -0.1966
     63  CA        24.9250   20.9360   48.8320 C.3    32  VAL32       0.1727
     64  C         25.5000   22.0450   47.9780 C.2    32  VAL32       0.2616
     65  O         26.3010   21.7830   47.0770 O.2    32  VAL32      -0.2715
     66  CB        23.5600   20.5340   48.2320 C.3    32  VAL32       0.0290
     67  CG1       23.6450   20.4610   46.7020 C.3    32  VAL32       0.0023
     68  CG2       23.1360   19.1990   48.7810 C.3    32  VAL32       0.0023
     69  N         25.0740   23.2810   48.2170 N.am   33  VAL33      -0.1977
     70  CA        25.6070   24.3830   47.4250 C.3    33  VAL33       0.1596
     71  C         27.0710   24.6380   47.7560 C.2    33  VAL33       0.2287
     72  O         27.8340   25.0410   46.8840 O.2    33  VAL33      -0.2864
     73  CB        24.8210   25.7060   47.6500 C.3    33  VAL33       0.0276
     74  CG1       23.5360   25.6720   46.8670 C.3    33  VAL33       0.0022
     75  CG2       24.5510   25.8940   49.1170 C.3    33  VAL33       0.0022
     76  N         29.3300   22.6700   48.0770 N.3    35  ARG35      -0.1231
     77  CA        30.1640   21.8180   47.2280 C.3    35  ARG35       0.1694
     78  C         30.1100   22.3200   45.7900 C.2    35  ARG35       0.2592
     79  O         30.7390   21.7460   44.9070 O.2    35  ARG35      -0.2718
     80  CB        29.6800   20.3660   47.2510 C.3    35  ARG35       0.0321
     81  CG        29.8190   19.6270   48.5750 C.3    35  ARG35       0.0489
     82  CD        29.1470   18.2650   48.4540 C.3    35  ARG35       0.2205
     83  NE        29.5480   17.3480   49.5170 N.pl3  35  ARG35      -0.0865
     84  CZ        29.2640   17.5320   50.7980 C.cat  35  ARG35       0.5346
     85  NH1       28.5640   18.5940   51.1730 N.pl3  35  ARG35       0.1354
     86  NH2       29.7100   16.6850   51.7080 N.pl3  35  ARG35       0.1354
     87  N         29.3450   23.3800   45.5420 N.am   36  HIS36      -0.1976
     88  CA        29.2380   23.9080   44.1900 C.3    36  HIS36       0.1656
     89  C         29.4970   25.4040   44.1460 C.2    36  HIS36       0.2291
     90  O         28.6040   26.1970   43.8340 O.2    36  HIS36      -0.2864
     91  CB        27.8630   23.6120   43.6010 C.3    36  HIS36       0.0771
     92  CG        27.6420   22.1720   43.2640 C.ar   36  HIS36       0.0820
     93  ND1       27.9150   21.6500   42.0190 N.ar   36  HIS36      -0.2267
     94  CD2       27.1230   21.1540   43.9940 C.ar   36  HIS36       0.1154
     95  CE1       27.5640   20.3760   41.9900 C.ar   36  HIS36       0.1986
     96  NE2       27.0790   20.0520   43.1770 N.ar   36  HIS36      -0.2212
     97  N         30.7050   27.2350   42.0850 N.3    38  ASP38      -0.1225
     98  CA        30.3500   27.8430   40.7990 C.3    38  ASP38       0.1805
     99  C         28.9390   28.4210   40.8600 C.2    38  ASP38       0.2597
    100  O         28.4850   29.1060   39.9340 O.2    38  ASP38      -0.2718
    101  CB        30.4050   26.7920   39.7020 C.3    38  ASP38       0.1424
    102  CG        29.6460   25.5460   40.0770 C.2    38  ASP38       0.3668
    103  OD1       29.9830   24.9340   41.1210 O.co2  38  ASP38      -0.2456
    104  OD2       28.7060   25.1860   39.3400 O.co2  38  ASP38      -0.2456
    105  N         28.2300   28.0920   41.9380 N.am   39  LEU39      -0.1979
    106  CA        26.8840   28.5980   42.1610 C.3    39  LEU39       0.1596
    107  C         27.0630   29.7140   43.1860 C.2    39  LEU39       0.2287
    108  O         27.4040   29.4650   44.3510 O.2    39  LEU39      -0.2864
    109  CB        25.9880   27.4960   42.7190 C.3    39  LEU39       0.0297
    110  CG        25.8470   26.2290   41.8640 C.3    39  LEU39       0.0022
    111  CD1       24.8220   25.3230   42.5100 C.3    39  LEU39       0.0001
    112  CD2       25.4120   26.5720   40.4360 C.3    39  LEU39       0.0001
    113  N          9.2030   16.4420   49.6240 N.3    69  PHE69      -0.1241
    114  CA        10.6360   16.6510   49.4430 C.3    69  PHE69       0.1605
    115  C         11.1250   16.1080   48.0810 C.2    69  PHE69       0.2264
    116  O         12.0110   16.6960   47.4380 O.2    69  PHE69      -0.2867
    117  CB        11.4260   15.9650   50.5510 C.3    69  PHE69       0.0534
    118  CG        12.8900   16.2960   50.5310 C.ar   69  PHE69      -0.0203
    119  CD1       13.3620   17.4350   51.1610 C.ar   69  PHE69      -0.0042
    120  CD2       13.7910   15.4630   49.8800 C.ar   69  PHE69      -0.0042
    121  CE1       14.7300   17.7380   51.1450 C.ar   69  PHE69      -0.0003
    122  CE2       15.1370   15.7470   49.8490 C.ar   69  PHE69      -0.0003
    123  CZ        15.6250   16.8840   50.4820 C.ar   69  PHE69      -0.0000
    124  N         12.9040   18.5180   45.3870 N.3    73  TRP73      -0.1241
    125  CA        14.2580   18.2100   44.9250 C.3    73  TRP73       0.1605
    126  C         14.3790   18.0110   43.3990 C.2    73  TRP73       0.2264
    127  O         15.3570   18.4340   42.7900 O.2    73  TRP73      -0.2867
    128  CB        14.8320   16.9700   45.6330 C.3    73  TRP73       0.0550
    129  CG        16.2440   16.7330   45.2210 C.ar   73  TRP73       0.0003
    130  CD1       16.7030   15.7790   44.3440 C.ar   73  TRP73       0.0946
    131  CD2       17.3800   17.5740   45.5270 C.ar   73  TRP73       0.0152
    132  NE1       18.0430   15.9810   44.0860 N.ar   73  TRP73      -0.2442
    133  CE2       18.4840   17.0690   44.7960 C.ar   73  TRP73       0.0810
    134  CE3       17.5650   18.7110   46.3370 C.ar   73  TRP73       0.0012
    135  CZ2       19.7580   17.6590   44.8540 C.ar   73  TRP73       0.0191
    136  CZ3       18.8380   19.2990   46.3930 C.ar   73  TRP73       0.0001
    137  CH2       19.9180   18.7630   45.6520 C.ar   73  TRP73       0.0015
    138  N         14.3060   21.3930   41.9330 N.3    76  ILE76      -0.1231
    139  CA        15.5780   22.0270   42.1860 C.3    76  ILE76       0.1692
    140  C         16.6940   21.5150   41.2750 C.2    76  ILE76       0.2591
    141  O         17.5150   22.2990   40.7870 O.2    76  ILE76      -0.2718
    142  CB        16.0410   21.8470   43.6290 C.3    76  ILE76       0.0266
    143  CG1       15.1250   22.6180   44.5870 C.3    76  ILE76       0.0019
    144  CG2       17.4190   22.3930   43.7860 C.3    76  ILE76       0.0020
    145  CD1       15.5970   22.5180   46.0240 C.3    76  ILE76       0.0001
    146  N         16.7760   20.2090   41.0470 N.am   77  LYS77      -0.1980
    147  CA        17.8630   19.7580   40.1750 C.3    77  LYS77       0.1596
    148  C         17.5850   20.1250   38.7020 C.2    77  LYS77       0.2287
    149  O         18.5130   20.3880   37.9590 O.2    77  LYS77      -0.2864
    150  CB        18.1260   18.2480   40.3210 C.3    77  LYS77       0.0298
    151  CG        17.0180   17.3380   39.8250 C.3    77  LYS77       0.0038
    152  CD        17.3580   15.8430   40.0870 C.3    77  LYS77       0.0206
    153  CE        16.1930   14.9570   39.5880 C.3    77  LYS77       0.1093
    154  NZ        16.4430   13.5010   39.7020 N.3    77  LYS77      -0.1314
    155  N         18.3480   23.7430   38.5510 N.3    80  GLN80      -0.1231
    156  CA        19.7750   23.9950   38.7650 C.3    80  GLN80       0.1698
    157  C         20.6270   23.7150   37.5130 C.2    80  GLN80       0.2592
    158  O         21.7880   24.1410   37.4190 O.2    80  GLN80      -0.2718
    159  CB        20.2820   23.1330   39.9340 C.3    80  GLN80       0.0381
    160  CG        21.7700   23.2020   40.2610 C.3    80  GLN80       0.0905
    161  CD        22.6240   22.5130   39.1940 C.2    80  GLN80       0.2608
    162  OE1       22.1430   21.6180   38.4720 O.2    80  GLN80      -0.2717
    163  NE2       23.8930   22.9110   39.1040 N.am   80  GLN80      -0.0878
    164  N         20.0620   22.9710   36.5760 N.am   81  ALA81      -0.1980
    165  CA        20.7620   22.6290   35.3420 C.3    81  ALA81       0.1597
    166  C         20.5470   23.8230   34.4150 C.2    81  ALA81       0.2287
    167  O         21.4820   24.2770   33.7360 O.2    81  ALA81      -0.2864
    168  CB        20.1670   21.3160   34.7200 C.3    81  ALA81       0.0319
    169  N         23.0320   26.5780   35.4890 N.3    84  LYS84      -0.1245
    170  CA        24.3610   26.3950   34.9210 C.3    84  LYS84       0.1561
    171  C         24.3180   26.5870   33.3940 C.2    84  LYS84       0.2260
    172  O         25.2890   27.0650   32.7910 O.2    84  LYS84      -0.2867
    173  CB        24.9060   25.0130   35.2890 C.3    84  LYS84       0.0271
    174  CG        25.5780   24.9760   36.6680 C.3    84  LYS84       0.0035
    175  CD        27.0430   25.5010   36.6370 C.3    84  LYS84       0.0206
    176  CE        27.1720   26.9970   36.3400 C.3    84  LYS84       0.1093
    177  NZ        27.3290   27.8840   37.5600 N.3    84  LYS84      -0.1314
    178  N         21.8780   31.9980   42.9120 N.3   131  PHE131     -0.1241
    179  CA        21.2710   30.6730   43.0540 C.3   131  PHE131      0.1605
    180  C         20.0580   30.4620   43.9950 C.2   131  PHE131      0.2264
    181  O         18.9700   30.0400   43.5540 O.2   131  PHE131     -0.2867
    182  CB        22.3590   29.6400   43.3880 C.3   131  PHE131      0.0534
    183  CG        21.9220   28.2090   43.1210 C.ar  131  PHE131     -0.0203
    184  CD1       21.5670   27.8120   41.8370 C.ar  131  PHE131     -0.0042
    185  CD2       21.7670   27.3090   44.1630 C.ar  131  PHE131     -0.0042
    186  CE1       21.0550   26.5500   41.6030 C.ar  131  PHE131     -0.0003
    187  CE2       21.2620   26.0520   43.9480 C.ar  131  PHE131     -0.0003
    188  CZ        20.8990   25.6600   42.6700 C.ar  131  PHE131     -0.0000
@<TRIPOS>BOND
     1   172   171    2
     2   171   170    1
     3   167   166    2
     4   166   165    1
     5   168   165    1
     6   170   173    1
     7   170   169    1
     8   173   174    1
     9   165   164    1
    10   176   175    1
    11   176   177    1
    12   164   157   am
    13   175   174    1
    14   158   157    2
    15   157   156    1
    16   149   148    2
    17   162   161    2
    18   155   156    1
    19   148   147    1
    20   156   159    1
    21   163   161   am
    22   161   160    1
    23   104   102   ar
    24   153   154    1
    25   153   152    1
    26   101   102    1
    27   101    98    1
    28   151   152    1
    29   151   150    1
    30   100    99    2
    31   159   160    1
    32   102   103   ar
    33   147   150    1
    34   147   146    1
    35   112   110    1
    36   141   140    2
    37    98    99    1
    38    98    97    1
    39    99   105   am
    40   146   140   am
    41   140   139    1
    42   186   184   ar
    43   186   188   ar
    44   184   183   ar
    45   110   111    1
    46   110   109    1
    47   138   139    1
    48   105   106    1
    49    95    93   ar
    50    95    96   ar
    51    93    92   ar
    52   106   109    1
    53   106   107    1
    54   139   142    1
    55   188   187   ar
    56   127   126    2
    57   178   179    1
    58   179   182    1
    59   179   180    1
    60   183   182    1
    61   183   185   ar
    62    96    94   ar
    63   107   108    2
    64    92    91    1
    65    92    94   ar
    66   126   125    1
    67   181   180    2
    68    91    88    1
    69   142   144    1
    70   142   143    1
    71    90    89    2
    72   187   185   ar
    73   132   130   ar
    74   132   133   ar
    75    89    88    1
    76    88    87    1
    77   130   129   ar
    78   143   145    1
    79   133   135   ar
    80   133   131   ar
    81   135   137   ar
    82    79    78    2
    83   125   124    1
    84   125   128    1
    85   129   131   ar
    86   129   128    1
    87   131   134   ar
    88    87    78   am
    89   137   136   ar
    90     7     9   ar
    91     7     6   ar
    92    78    77    1
    93     9    11   ar
    94     5     6    1
    95     5     2    1
    96   134   136   ar
    97     1     2    1
    98     6     8   ar
    99    67    66    1
   100    74    73    1
   101    72    71    2
   102    11    10   ar
   103     2     3    1
   104    65    64    2
   105    77    80    1
   106    77    76    1
   107    80    81    1
   108     8    10   ar
   109    70    73    1
   110    70    71    1
   111    70    69    1
   112   116   115    2
   113    73    75    1
   114    19    17    1
   115    64    69   am
   116    64    63    1
   117   115   114    1
   118    66    68    1
   119    66    63    1
   120     3     4    2
   121    82    81    1
   122    82    83    1
   123    63    62    1
   124    51    50    1
   125    17    18    1
   126    17    16    1
   127   114   113    1
   128   114   117    1
   129    16    13    1
   130    83    84    2
   131    50    52    1
   132    50    49    1
   133    48    47    2
   134   122   120   ar
   135   122   123   ar
   136   120   118   ar
   137    62    55   am
   138   123   121   ar
   139    49    46    1
   140   118   117    1
   141   118   119   ar
   142    56    55    2
   143    12    13    1
   144    46    47    1
   145    46    45    1
   146    84    85    1
   147    84    86    1
   148    13    14    1
   149    55    54    1
   150   121   119   ar
   151    40    39    2
   152    35    34    1
   153    14    15    2
   154    43    41    1
   155    45    39   am
   156    39    38    1
   157    54    53    1
   158    54    57    1
   159    41    38    1
   160    41    42    1
   161    34    36    1
   162    34    33    1
   163    57    58    1
   164    38    37    1
   165    33    30    1
   166    42    44    1
   167    58    59    1
   168    25    24    1
   169    25    26    1
   170    24    21    1
   171    29    30    1
   172    29    22   am
   173    59    60    1
   174    30    31    1
   175    20    21    1
   176    21    22    1
   177    22    23    2
   178    31    32    2
   179    26    28   am
   180    26    27    2
   181    60    61    1
