@<TRIPOS>MOLECULE
tmp/1nx8C01.pdb
 104 100 0 0 0
SMALL
GASTEIGER

@<TRIPOS>ATOM
      1  N         28.6680   32.5910   49.2000 N.3    78  VAL78      -0.1245
      2  CA        27.2180   32.5090   49.3970 C.3    78  VAL78       0.1561
      3  C         26.8320   32.5390   50.8800 C.2    78  VAL78       0.2260
      4  O         25.8910   33.2240   51.2670 O.2    78  VAL78      -0.2867
      5  CB        26.6410   31.2510   48.7090 C.3    78  VAL78       0.0252
      6  CG1       25.1000   31.2690   48.6660 C.3    78  VAL78       0.0019
      7  CG2       27.1960   31.1350   47.3000 C.3    78  VAL78       0.0019
      8  N         25.7200   39.5080   47.1930 N.3    84  LEU84      -0.1245
      9  CA        25.3290   38.4580   46.2790 C.3    84  LEU84       0.1561
     10  C         24.4370   39.2660   45.3500 C.2    84  LEU84       0.2260
     11  O         23.3750   39.6930   45.7630 O.2    84  LEU84      -0.2867
     12  CB        24.5330   37.3940   47.0140 C.3    84  LEU84       0.0270
     13  CG        25.0860   35.9700   46.9990 C.3    84  LEU84       0.0019
     14  CD1       26.5180   35.9340   47.4980 C.3    84  LEU84       0.0001
     15  CD2       24.2140   35.0310   47.8340 C.3    84  LEU84       0.0001
     16  N         19.9920   37.7610   41.1670 N.3    87  HIS87      -0.1226
     17  CA        19.8890   36.4150   40.6800 C.3    87  HIS87       0.1752
     18  C         18.5690   35.8090   41.0430 C.2    87  HIS87       0.2596
     19  O         17.8290   36.3390   41.8560 O.2    87  HIS87      -0.2718
     20  CB        20.9730   35.5100   41.2820 C.3    87  HIS87       0.0759
     21  CG        20.8520   35.3080   42.7680 C.ar   87  HIS87       0.0818
     22  ND1       21.3430   36.2120   43.6800 N.ar   87  HIS87      -0.2268
     23  CD2       20.3280   34.2920   43.4950 C.ar   87  HIS87       0.1154
     24  CE1       21.1090   35.7740   44.9080 C.ar   87  HIS87       0.1986
     25  NE2       20.5080   34.6010   44.8270 N.ar   87  HIS87      -0.2212
     26  N         18.3160   34.6490   40.4590 N.am   88  ALA88      -0.1966
     27  CA        17.2070   33.8180   40.8710 C.3    88  ALA88       0.1728
     28  C         17.8520   32.5810   41.4170 C.2    88  ALA88       0.2616
     29  O         19.0060   32.2760   41.1210 O.2    88  ALA88      -0.2715
     30  CB        16.3420   33.4600   39.7180 C.3    88  ALA88       0.0334
     31  N         17.1230   31.8460   42.2240 N.am   89  ASP89      -0.1957
     32  CA        17.7210   30.6580   42.7650 C.3    89  ASP89       0.1840
     33  C         17.5750   29.4710   41.8160 C.2    89  ASP89       0.2622
     34  O         16.6300   29.3910   41.0420 O.2    89  ASP89      -0.2715
     35  CB        17.1410   30.3140   44.1380 C.3    89  ASP89       0.1450
     36  CG        17.7250   31.1620   45.2600 C.2    89  ASP89       0.3671
     37  OD1       18.5470   32.0680   45.0250 O.co2  89  ASP89      -0.2456
     38  OD2       17.4320   30.9770   46.4450 O.co2  89  ASP89      -0.2456
     39  N         18.5720   28.5990   41.8380 N.am   90  GLY90      -0.1954
     40  CA        18.5040   27.3160   41.1610 C.3    90  GLY90       0.1869
     41  C         19.1720   27.0630   39.8360 C.2    90  GLY90       0.2309
     42  O         19.6210   25.9460   39.5880 O.2    90  GLY90      -0.2863
     43  N         22.0750   27.8410   38.4270 N.3    92  LEU92      -0.1231
     44  CA        23.5130   27.6510   38.2420 C.3    92  LEU92       0.1693
     45  C         23.8860   26.2000   38.5690 C.2    92  LEU92       0.2591
     46  O         24.9050   25.6770   38.0970 O.2    92  LEU92      -0.2718
     47  CB        24.3260   28.6390   39.0800 C.3    92  LEU92       0.0284
     48  CG        24.7320   29.9570   38.4580 C.3    92  LEU92       0.0019
     49  CD1       25.5810   30.6410   39.5440 C.3    92  LEU92       0.0001
     50  CD2       25.5840   29.6860   37.2290 C.3    92  LEU92       0.0001
     51  N         23.0410   25.5480   39.3660 N.am   93  LEU93      -0.1980
     52  CA        23.2510   24.1470   39.7270 C.3    93  LEU93       0.1596
     53  C         22.2360   23.2800   38.9960 C.2    93  LEU93       0.2287
     54  O         22.2280   22.0550   39.1580 O.2    93  LEU93      -0.2864
     55  CB        23.1270   23.9510   41.2370 C.3    93  LEU93       0.0297
     56  CG        24.2530   24.5310   42.0920 C.3    93  LEU93       0.0022
     57  CD1       23.8860   24.3680   43.5490 C.3    93  LEU93       0.0001
     58  CD2       25.5700   23.8440   41.8350 C.3    93  LEU93       0.0001
     59  N         22.2720   36.2360   36.1480 N.3   165  TYR165     -0.1241
     60  CA        23.2670   36.2560   37.1920 C.3   165  TYR165      0.1605
     61  C         24.0990   37.4860   36.9580 C.2   165  TYR165      0.2264
     62  O         24.8980   37.5120   36.0390 O.2   165  TYR165     -0.2867
     63  CB        24.1140   34.9790   37.1340 C.3   165  TYR165      0.0534
     64  CG        23.3350   33.7950   37.6210 C.ar  165  TYR165     -0.0201
     65  CD1       22.6820   32.9570   36.7250 C.ar  165  TYR165     -0.0009
     66  CD2       23.1900   33.5540   38.9860 C.ar  165  TYR165     -0.0009
     67  CE1       21.9210   31.9020   37.1670 C.ar  165  TYR165      0.0417
     68  CE2       22.4340   32.4910   39.4400 C.ar  165  TYR165      0.0417
     69  CZ        21.8090   31.6680   38.5180 C.ar  165  TYR165      0.1957
     70  OH        21.0510   30.6050   38.9340 O.3   165  TYR165     -0.2866
     71  N         30.1700   33.7960   40.9670 N.3   176  TRP176     -0.1241
     72  CA        29.9570   33.5650   39.5460 C.3   176  TRP176      0.1605
     73  C         30.4110   34.7370   38.6910 C.2   176  TRP176      0.2264
     74  O         30.6810   35.8220   39.1750 O.2   176  TRP176     -0.2867
     75  CB        28.5030   33.2100   39.2280 C.3   176  TRP176      0.0550
     76  CG        27.5060   34.2500   39.6400 C.ar  176  TRP176      0.0003
     77  CD1       27.1980   35.4090   38.9900 C.ar  176  TRP176      0.0946
     78  CD2       26.6770   34.2120   40.7950 C.ar  176  TRP176      0.0152
     79  NE1       26.2470   36.0990   39.6910 N.ar  176  TRP176     -0.2442
     80  CE2       25.8930   35.3760   40.7930 C.ar  176  TRP176      0.0810
     81  CE3       26.5100   33.3040   41.8330 C.ar  176  TRP176      0.0012
     82  CZ2       24.9680   35.6650   41.8030 C.ar  176  TRP176      0.0191
     83  CZ3       25.6180   33.6070   42.8370 C.ar  176  TRP176      0.0001
     84  CH2       24.8380   34.7620   42.8020 C.ar  176  TRP176      0.0015
     85  N         17.7680   29.3330   55.3520 N.3   241  ARG241     -0.1245
     86  CA        17.1880   29.2990   54.0310 C.3   241  ARG241      0.1563
     87  C         16.5820   27.9570   53.6570 C.2   241  ARG241      0.2260
     88  O         17.2060   26.9070   53.8220 O.2   241  ARG241     -0.2867
     89  CB        18.2190   29.7400   52.9940 C.3   241  ARG241      0.0307
     90  CG        17.6410   30.0190   51.6400 C.3   241  ARG241      0.0489
     91  CD        18.0610   29.0780   50.5760 C.3   241  ARG241      0.2205
     92  NE        19.3430   29.4760   50.0380 N.pl3 241  ARG241     -0.0865
     93  CZ        20.2120   28.6340   49.5310 C.cat 241  ARG241      0.5346
     94  NH1       19.9560   27.3310   49.4890 N.pl3 241  ARG241      0.1354
     95  NH2       21.3500   29.1000   49.0530 N.pl3 241  ARG241      0.1354
     96  N         14.2160   25.9240   50.4470 N.3   243  GLN243     -0.1245
     97  CA        13.8580   25.9910   49.0270 C.3   243  GLN243      0.1566
     98  C         12.9420   24.9000   48.5570 C.2   243  GLN243      0.2260
     99  O         13.2700   23.7440   48.6930 O.2   243  GLN243     -0.2867
    100  CB        15.0900   25.8360   48.1810 C.3   243  GLN243      0.0367
    101  CG        15.8880   27.0360   48.1700 C.3   243  GLN243      0.0905
    102  CD        17.0710   26.8790   47.3520 C.2   243  GLN243      0.2608
    103  OE1       17.5410   25.7670   47.0730 O.2   243  GLN243     -0.2717
    104  NE2       17.5650   27.9870   46.9230 N.am  243  GLN243     -0.0878
@<TRIPOS>BOND
     1    62    61    2
     2    59    60    1
     3    65    67   ar
     4    65    64   ar
     5    61    60    1
     6    63    60    1
     7    63    64    1
     8    67    69   ar
     9    50    48    1
    10    64    66   ar
    11    46    45    2
    12    44    43    1
    13    44    45    1
    14    44    47    1
    15    48    47    1
    16    48    49    1
    17    69    70    1
    18    69    68   ar
    19    45    51   am
    20    73    74    2
    21    73    72    1
    22    66    68   ar
    23    77    76   ar
    24    77    79   ar
    25    53    54    2
    26    53    52    1
    27    75    72    1
    28    75    76    1
    29    51    52    1
    30    72    71    1
    31    42    41    2
    32    76    78   ar
    33    79    80   ar
    34    30    27    1
    35    52    55    1
    36    41    40    1
    37    26    27    1
    38    26    18   am
    39    17    18    1
    40    17    16    1
    41    17    20    1
    42    80    78   ar
    43    80    82   ar
    44    78    81   ar
    45    27    28    1
    46    34    33    2
    47    18    19    2
    48    29    28    2
    49    40    39    1
    50    55    56    1
    51    20    21    1
    52    28    31   am
    53    82    84   ar
    54    33    39   am
    55    33    32    1
    56    81    83   ar
    57    58    56    1
    58    56    57    1
    59    31    32    1
    60    32    35    1
    61    21    23   ar
    62    21    22   ar
    63    84    83   ar
    64    23    25   ar
    65    22    24   ar
    66    35    36    1
    67    25    24   ar
    68    37    36   ar
    69    36    38   ar
    70    10    11    2
    71    10     9    1
    72     9    12    1
    73     9     8    1
    74   104   102   am
    75    13    12    1
    76    13    14    1
    77    13    15    1
    78   103   102    2
    79     7     5    1
    80   102   101    1
    81   101   100    1
    82   100    97    1
    83    98    99    2
    84    98    97    1
    85     6     5    1
    86     5     2    1
    87    97    96    1
    88    95    93    1
    89     1     2    1
    90     2     3    1
    91    94    93    1
    92    93    92    2
    93    92    91    1
    94    91    90    1
    95     3     4    2
    96    90    89    1
    97    89    86    1
    98    87    88    2
    99    87    86    1
   100    86    85    1
