@<TRIPOS>MOLECULE
tmp/1nx8A00.pdb
 114 103 0 0 0
SMALL
GASTEIGER

@<TRIPOS>ATOM
      1  N         29.2670   58.7280    7.0780 N.3    72  LEU72      -0.1245
      2  CA        29.8550   58.7140    8.4110 C.3    72  LEU72       0.1561
      3  C         30.3680   57.2980    8.6220 C.2    72  LEU72       0.2260
      4  O         29.6010   56.3940    8.9030 O.2    72  LEU72      -0.2867
      5  CB        28.7950   59.0500    9.4430 C.3    72  LEU72       0.0270
      6  CG        27.9820   60.2980    9.0950 C.3    72  LEU72       0.0019
      7  CD1       26.6640   60.2670    9.7930 C.3    72  LEU72       0.0001
      8  CD2       28.7340   61.5580    9.4730 C.3    72  LEU72       0.0001
      9  N         33.1530   64.5960   13.3330 N.3    80  VAL80      -0.1245
     10  CA        31.7750   64.2930   12.9300 C.3    80  VAL80       0.1561
     11  C         31.7140   62.9410   12.2150 C.2    80  VAL80       0.2260
     12  O         30.8620   62.0890   12.5030 O.2    80  VAL80      -0.2867
     13  CB        31.2510   65.4470   12.0210 C.3    80  VAL80       0.0252
     14  CG1       30.0820   65.0350   11.1110 C.3    80  VAL80       0.0019
     15  CG2       30.9010   66.6730   12.8600 C.3    80  VAL80       0.0019
     16  N         29.3440   62.5680   19.7190 N.3    86  LEU86      -0.1245
     17  CA        28.7900   63.8170   19.2760 C.3    86  LEU86       0.1561
     18  C         27.7210   64.0860   20.3380 C.2    86  LEU86       0.2260
     19  O         26.7270   63.4010   20.3850 O.2    86  LEU86      -0.2867
     20  CB        28.1630   63.6680   17.8950 C.3    86  LEU86       0.0270
     21  CG        28.8520   64.2650   16.6530 C.3    86  LEU86       0.0019
     22  CD1       30.3780   64.2690   16.6910 C.3    86  LEU86       0.0001
     23  CD2       28.3830   63.5700   15.4190 C.3    86  LEU86       0.0001
     24  N         22.7450   67.9200   20.0890 N.3    89  HIS89      -0.1241
     25  CA        22.6470   68.9930   19.1280 C.3    89  HIS89       0.1621
     26  C         21.4920   68.8560   18.1720 C.2    89  HIS89       0.2264
     27  O         20.8500   67.8210   18.0840 O.2    89  HIS89      -0.2867
     28  CB        23.9350   69.1230   18.3030 C.3    89  HIS89       0.0745
     29  CG        24.1680   67.9800   17.3680 C.ar   89  HIS89       0.0817
     30  ND1       24.6380   66.7580   17.7930 N.ar   89  HIS89      -0.2268
     31  CD2       23.9950   67.8710   16.0320 C.ar   89  HIS89       0.1154
     32  CE1       24.7500   65.9470   16.7590 C.ar   89  HIS89       0.1986
     33  NE2       24.3730   66.6000   15.6750 N.ar   89  HIS89      -0.2212
     34  N         20.9850   69.7430   13.9250 N.3    91  ASP91      -0.1239
     35  CA        21.8150   69.9500   12.7570 C.3    91  ASP91       0.1674
     36  C         21.6530   71.3320   12.1570 C.2    91  ASP91       0.2266
     37  O         20.5870   71.9520   12.2290 O.2    91  ASP91      -0.2867
     38  CB        21.4960   68.8830   11.7250 C.3    91  ASP91       0.1410
     39  CG        22.1910   67.5740   12.0240 C.2    91  ASP91       0.3668
     40  OD1       22.8720   67.4610   13.0720 O.co2  91  ASP91      -0.2456
     41  OD2       22.1410   66.5850   11.2660 O.co2  91  ASP91      -0.2456
     42  N         16.5680   65.1210    9.0030 N.3   102  VAL102     -0.1245
     43  CA        17.8480   64.4330    8.9890 C.3   102  VAL102      0.1561
     44  C         17.5690   62.9440    8.7810 C.2   102  VAL102      0.2260
     45  O         16.6700   62.3990    9.4050 O.2   102  VAL102     -0.2867
     46  CB        18.5980   64.5890   10.3250 C.3   102  VAL102      0.0252
     47  CG1       20.0400   64.1090   10.1990 C.3   102  VAL102      0.0019
     48  CG2       18.6030   66.0110   10.7600 C.3   102  VAL102      0.0019
     49  N         19.2650   59.0040    8.5580 N.3   104  LEU104     -0.1245
     50  CA        20.4410   58.1790    8.8250 C.3   104  LEU104      0.1561
     51  C         20.2010   56.7180    8.4560 C.2   104  LEU104      0.2260
     52  O         19.2760   56.0980    8.9710 O.2   104  LEU104     -0.2867
     53  CB        20.8220   58.2620   10.2900 C.3   104  LEU104      0.0270
     54  CG        21.4050   59.5760   10.7940 C.3   104  LEU104      0.0019
     55  CD1       21.4500   59.5840   12.3320 C.3   104  LEU104      0.0001
     56  CD2       22.7480   59.7410   10.2210 C.3   104  LEU104      0.0001
     57  N         22.8800   56.1530   18.1490 N.3   118  THR118     -0.1218
     58  CA        22.3810   57.4650   17.8320 C.3   118  THR118      0.1862
     59  C         21.2170   57.5950   18.7840 C.2   118  THR118      0.2287
     60  O         20.3510   56.7330   18.8540 O.2   118  THR118     -0.2866
     61  CB        21.8770   57.5630   16.4210 C.3   118  THR118      0.1770
     62  OG1       22.9490   57.3020   15.5130 O.3   118  THR118     -0.2211
     63  CG2       21.4930   58.9900   16.1230 C.3   118  THR118      0.0375
     64  N         19.6090   65.5700   19.0320 N.3   227  HIS227     -0.1241
     65  CA        20.2020   64.2600   19.0160 C.3   227  HIS227      0.1621
     66  C         21.6590   64.1700   19.3770 C.2   227  HIS227      0.2264
     67  O         22.3870   65.1640   19.4170 O.2   227  HIS227     -0.2867
     68  CB        19.9660   63.5890   17.6550 C.3   227  HIS227      0.0745
     69  CG        20.5510   64.3160   16.4950 C.ar  227  HIS227      0.0817
     70  ND1       19.9520   65.4150   15.9220 N.ar  227  HIS227     -0.2268
     71  CD2       21.6640   64.0700   15.7660 C.ar  227  HIS227      0.1154
     72  CE1       20.6780   65.8230   14.8960 C.ar  227  HIS227      0.1986
     73  NE2       21.7270   65.0300   14.7870 N.ar  227  HIS227     -0.2212
     74  N         25.2700   61.3200   19.1330 N.3   229  ARG229     -0.1245
     75  CA        25.9310   60.0640   18.8510 C.3   229  ARG229      0.1563
     76  C         26.8380   59.6810   20.0240 C.2   229  ARG229      0.2260
     77  O         27.6830   60.4620   20.4150 O.2   229  ARG229     -0.2867
     78  CB        26.7800   60.1240   17.5650 C.3   229  ARG229      0.0307
     79  CG        27.5490   58.8500   17.3840 C.3   229  ARG229      0.0489
     80  CD        28.4450   58.7590   16.2300 C.3   229  ARG229      0.2205
     81  NE        29.5900   59.6420   16.2960 N.pl3 229  ARG229     -0.0865
     82  CZ        30.0290   60.3050   15.2470 C.cat 229  ARG229      0.5346
     83  NH1       29.3860   60.1760   14.0970 N.pl3 229  ARG229      0.1354
     84  NH2       31.0950   61.0900   15.3410 N.pl3 229  ARG229      0.1354
     85  N         31.1050   50.7260   11.5900 N.3   239  ARG239     -0.1245
     86  CA        29.8680   51.4630   11.6890 C.3   239  ARG239      0.1563
     87  C         29.8460   52.4830   10.5590 C.2   239  ARG239      0.2260
     88  O         30.4750   53.5470   10.6470 O.2   239  ARG239     -0.2867
     89  CB        29.7750   52.1350   13.0690 C.3   239  ARG239      0.0307
     90  CG        28.5420   53.0000   13.3310 C.3   239  ARG239      0.0489
     91  CD        28.7430   53.8610   14.5770 C.3   239  ARG239      0.2205
     92  NE        27.5450   54.4900   15.1210 N.pl3 239  ARG239     -0.0865
     93  CZ        27.0920   55.6830   14.7670 C.cat 239  ARG239      0.5346
     94  NH1       27.6970   56.3820   13.8340 N.pl3 239  ARG239      0.1354
     95  NH2       26.0020   56.1660   15.3290 N.pl3 239  ARG239      0.1354
     96  N         27.4930   54.7710    8.2410 N.3   241  LEU241     -0.1245
     97  CA        26.1860   55.3520    8.0440 C.3   241  LEU241      0.1561
     98  C         26.1420   56.2920    6.8520 C.2   241  LEU241      0.2260
     99  O         27.1300   56.9440    6.5070 O.2   241  LEU241     -0.2867
    100  CB        25.7220   56.1130    9.2860 C.3   241  LEU241      0.0270
    101  CG        25.6150   55.4560   10.6550 C.3   241  LEU241      0.0019
    102  CD1       24.9840   56.4570   11.6720 C.3   241  LEU241      0.0001
    103  CD2       24.8100   54.1620   10.6140 C.3   241  LEU241      0.0001
    104  N         24.2500   59.6820    5.4310 N.3   243  ARG243     -0.1245
    105  CA        23.5040   60.7870    6.0240 C.3   243  ARG243      0.1563
    106  C         22.9470   61.7510    4.9980 C.2   243  ARG243      0.2260
    107  O         23.6770   62.2430    4.1520 O.2   243  ARG243     -0.2867
    108  CB        24.3520   61.5450    7.0580 C.3   243  ARG243      0.0307
    109  CG        23.5900   62.5670    7.8830 C.3   243  ARG243      0.0489
    110  CD        23.9320   64.0150    7.5920 C.3   243  ARG243      0.2205
    111  NE        24.7720   64.6010    8.6140 N.pl3 243  ARG243     -0.0865
    112  CZ        25.6020   65.6120    8.4070 C.cat 243  ARG243      0.5346
    113  NH1       25.7090   66.1580    7.2000 N.pl3 243  ARG243      0.1354
    114  NH2       26.3150   66.0880    9.4250 N.pl3 243  ARG243      0.1354
@<TRIPOS>BOND
     1   107   106    2
     2   106   105    1
     3   104   105    1
     4   105   108    1
     5    99    98    2
     6    98    97    1
     7   108   109    1
     8     1     2    1
     9   113   112    1
    10   110   109    1
    11   110   111    1
    12    97    96    1
    13    97   100    1
    14   112   111    2
    15   112   114    1
    16     2     3    1
    17     2     5    1
    18    51    50    1
    19    51    52    2
    20    49    50    1
    21     3     4    2
    22    44    43    1
    23    44    45    2
    24    50    53    1
    25    43    42    1
    26    43    46    1
    27     6     5    1
    28     6     8    1
    29     6     7    1
    30   100   101    1
    31    47    46    1
    32    56    54    1
    33    53    54    1
    34    46    48    1
    35    87    88    2
    36    87    86    1
    37   103   101    1
    38   101   102    1
    39    54    55    1
    40    14    13    1
    41    41    39   ar
    42    85    86    1
    43    86    89    1
    44    38    39    1
    45    38    35    1
    46    13    15    1
    47    13    10    1
    48    39    40   ar
    49    36    37    2
    50    36    35    1
    51    11    12    2
    52    11    10    1
    53    35    34    1
    54    10     9    1
    55    89    90    1
    56    90    91    1
    57    94    93    1
    58    83    82    1
    59    91    92    1
    60    93    92    2
    61    93    95    1
    62    73    72   ar
    63    73    71   ar
    64    72    70   ar
    65    82    84    1
    66    82    81    2
    67    23    21    1
    68    62    61    1
    69    33    31   ar
    70    33    32   ar
    71    71    69   ar
    72    70    69   ar
    73    31    29   ar
    74    63    61    1
    75    80    81    1
    76    80    79    1
    77    61    58    1
    78    69    68    1
    79    21    22    1
    80    21    20    1
    81    32    30   ar
    82    29    30   ar
    83    29    28    1
    84    79    78    1
    85    78    75    1
    86    68    65    1
    87    58    57    1
    88    58    59    1
    89    20    17    1
    90    27    26    2
    91    26    25    1
    92    28    25    1
    93    59    60    2
    94    75    74    1
    95    75    76    1
    96    65    64    1
    97    65    66    1
    98    25    24    1
    99    17    16    1
   100    17    18    1
   101    66    67    2
   102    76    77    2
   103    18    19    2
