@<TRIPOS>MOLECULE
tmp/1nx8B01.pdb
 88 85 0 0 0
SMALL
GASTEIGER

@<TRIPOS>ATOM
      1  N         27.1320   79.9630   58.8770 N.3    87  VAL87      -0.1245
      2  CA        25.7580   80.3560   58.5690 C.3    87  VAL87       0.1561
      3  C         25.7560   81.6300   57.7430 C.2    87  VAL87       0.2260
      4  O         25.1510   81.6900   56.6710 O.2    87  VAL87      -0.2867
      5  CB        24.9270   80.4920   59.8590 C.3    87  VAL87       0.0252
      6  CG1       23.6290   81.2610   59.6320 C.3    87  VAL87       0.0019
      7  CG2       24.6330   79.1100   60.4240 C.3    87  VAL87       0.0019
      8  N         24.8700   75.0880   53.3560 N.3    93  LEU93      -0.1245
      9  CA        24.1310   74.7820   54.5460 C.3    93  LEU93       0.1561
     10  C         23.2700   73.6270   54.0950 C.2    93  LEU93       0.2260
     11  O         22.3600   73.8270   53.2990 O.2    93  LEU93      -0.2867
     12  CB        23.2590   75.9510   54.9800 C.3    93  LEU93       0.0270
     13  CG        23.6060   76.6490   56.2910 C.3    93  LEU93       0.0019
     14  CD1       25.0720   76.4770   56.7300 C.3    93  LEU93       0.0001
     15  CD2       23.2320   78.0840   56.2240 C.3    93  LEU93       0.0001
     16  N         18.1210   71.3010   56.6160 N.3    96  HIS96      -0.1226
     17  CA        17.6860   71.6070   57.9700 C.3    96  HIS96       0.1752
     18  C         16.4160   72.3900   57.9690 C.2    96  HIS96       0.2596
     19  O         15.9600   72.8550   56.9290 O.2    96  HIS96      -0.2718
     20  CB        18.7200   72.4390   58.7220 C.3    96  HIS96       0.0759
     21  CG        18.8900   73.8310   58.1860 C.ar   96  HIS96       0.0818
     22  ND1       19.7480   74.1230   57.1500 N.ar   96  HIS96      -0.2268
     23  CD2       18.3470   75.0150   58.5700 C.ar   96  HIS96       0.1154
     24  CE1       19.7080   75.4210   56.8990 C.ar   96  HIS96       0.1986
     25  NE2       18.8850   75.9910   57.7650 N.ar   96  HIS96      -0.2212
     26  N         15.8540   72.5440   59.1560 N.am   97  ALA97      -0.1966
     27  CA        14.7840   73.5130   59.4010 C.3    97  ALA97       0.1728
     28  C         15.3410   74.4920   60.4230 C.2    97  ALA97       0.2616
     29  O         16.2050   74.1330   61.2140 O.2    97  ALA97      -0.2715
     30  CB        13.5600   72.8430   59.9730 C.3    97  ALA97       0.0334
     31  N         14.8390   75.7150   60.4230 N.am   98  ASP98      -0.1957
     32  CA        15.2800   76.7140   61.3840 C.3    98  ASP98       0.1840
     33  C         14.6920   76.5390   62.7770 C.2    98  ASP98       0.2622
     34  O         13.7170   75.8170   62.9710 O.2    98  ASP98      -0.2715
     35  CB        14.9020   78.0740   60.8710 C.3    98  ASP98       0.1450
     36  CG        15.8090   78.5380   59.7460 C.2    98  ASP98       0.3671
     37  OD1       16.6450   77.7590   59.2530 O.co2  98  ASP98      -0.2456
     38  OD2       15.7850   79.6890   59.2950 O.co2  98  ASP98      -0.2456
     39  N         15.3270   77.2110   63.7350 N.am   99  GLY99      -0.1954
     40  CA        14.9690   77.2160   65.1440 C.3    99  GLY99       0.1869
     41  C         15.1740   75.8750   65.8290 C.2    99  GLY99       0.2309
     42  O         15.9070   74.9760   65.3450 O.2    99  GLY99      -0.2863
     43  N         19.1760   67.5230   60.6920 N.3   175  TYR175     -0.1241
     44  CA        20.3510   68.3020   60.3370 C.3   175  TYR175      0.1605
     45  C         21.2170   67.3500   59.5500 C.2   175  TYR175      0.2264
     46  O         21.8360   66.4740   60.1260 O.2   175  TYR175     -0.2867
     47  CB        21.0870   68.8270   61.5950 C.3   175  TYR175      0.0534
     48  CG        20.2960   69.8410   62.3860 C.ar  175  TYR175     -0.0201
     49  CD1       19.3980   69.4480   63.4060 C.ar  175  TYR175     -0.0009
     50  CD2       20.4410   71.1990   62.1270 C.ar  175  TYR175     -0.0009
     51  CE1       18.6700   70.3990   64.1260 C.ar  175  TYR175      0.0417
     52  CE2       19.7110   72.1470   62.8270 C.ar  175  TYR175      0.0417
     53  CZ        18.8460   71.7380   63.8310 C.ar  175  TYR175      0.1957
     54  OH        18.1090   72.6770   64.4660 O.3   175  TYR175     -0.2866
     55  N         27.7230   71.9170   62.2150 N.3   186  TRP186     -0.1241
     56  CA        27.1090   70.7710   62.8870 C.3   186  TRP186      0.1605
     57  C         27.4880   69.4110   62.3410 C.2   186  TRP186      0.2264
     58  O         27.9210   69.2780   61.2020 O.2   186  TRP186     -0.2867
     59  CB        25.5770   70.8740   62.9750 C.3   186  TRP186      0.0550
     60  CG        24.8010   70.8730   61.6670 C.ar  186  TRP186      0.0003
     61  CD1       24.6260   69.8340   60.7830 C.ar  186  TRP186      0.0946
     62  CD2       24.0490   71.9580   61.1460 C.ar  186  TRP186      0.0152
     63  NE1       23.8250   70.2290   59.7450 N.ar  186  TRP186     -0.2442
     64  CE2       23.4500   71.5270   59.9440 C.ar  186  TRP186      0.0810
     65  CE3       23.8220   73.2710   61.5720 C.ar  186  TRP186      0.0012
     66  CZ2       22.6700   72.3600   59.1540 C.ar  186  TRP186      0.0191
     67  CZ3       23.0510   74.0820   60.7920 C.ar  186  TRP186      0.0001
     68  CH2       22.4600   73.6180   59.6000 C.ar  186  TRP186      0.0015
     69  N         17.7160   87.9540   56.5690 N.3   251  ARG251     -0.1245
     70  CA        16.9210   86.8800   57.1220 C.3   251  ARG251      0.1563
     71  C         16.0480   87.2760   58.3070 C.2   251  ARG251      0.2260
     72  O         16.5380   87.8720   59.2790 O.2   251  ARG251     -0.2867
     73  CB        17.8040   85.6890   57.4940 C.3   251  ARG251      0.0307
     74  CG        17.0140   84.3880   57.7270 C.3   251  ARG251      0.0489
     75  CD        17.0730   83.8550   59.0930 C.3   251  ARG251      0.2205
     76  NE        18.2910   83.1090   59.3210 N.pl3 251  ARG251     -0.0865
     77  CZ        18.8260   82.9050   60.5120 C.cat 251  ARG251      0.5346
     78  NH1       18.2640   83.3980   61.6070 N.pl3 251  ARG251      0.1354
     79  NH2       19.9300   82.1790   60.6120 N.pl3 251  ARG251      0.1354
     80  N         12.8500   85.7870   61.0290 N.3   253  GLN253     -0.1245
     81  CA        12.1140   84.6340   61.5790 C.3   253  GLN253      0.1566
     82  C         11.0130   85.0050   62.5550 C.2   253  GLN253      0.2260
     83  O         11.2100   85.8480   63.4280 O.2   253  GLN253     -0.2867
     84  CB        13.0310   83.6760   62.3500 C.3   253  GLN253      0.0367
     85  CG        14.4070   83.5960   61.8040 C.3   253  GLN253      0.0905
     86  CD        15.1250   82.4120   62.2340 C.2   253  GLN253      0.2608
     87  OE1       15.4950   82.2790   63.3910 O.2   253  GLN253     -0.2717
     88  NE2       15.3190   81.5230   61.3150 N.am  253  GLN253     -0.0878
@<TRIPOS>BOND
     1    11    10    2
     2     8     9    1
     3    10     9    1
     4     9    12    1
     5    12    13    1
     6    15    13    1
     7    13    14    1
     8    69    70    1
     9    16    17    1
    10     4     3    2
    11    24    22   ar
    12    24    25   ar
    13    19    18    2
    14    70    73    1
    15    70    71    1
    16    22    21   ar
    17    73    74    1
    18    74    75    1
    19     3     2    1
    20    25    23   ar
    21    18    17    1
    22    18    26   am
    23    17    20    1
    24    21    23   ar
    25    21    20    1
    26    71    72    2
    27     2     1    1
    28     2     5    1
    29    75    76    1
    30    66    68   ar
    31    66    64   ar
    32    26    27    1
    33    37    36   ar
    34    38    36   ar
    35    76    77    2
    36    27    30    1
    37    27    28    1
    38    45    46    2
    39    45    44    1
    40    68    67   ar
    41     6     5    1
    42    63    64   ar
    43    63    61   ar
    44    36    35    1
    45     5     7    1
    46    64    62   ar
    47    44    43    1
    48    44    47    1
    49    28    31   am
    50    28    29    2
    51    31    32    1
    52    77    79    1
    53    77    78    1
    54    61    60   ar
    55    67    65   ar
    56    35    32    1
    57    80    81    1
    58    62    65   ar
    59    62    60   ar
    60    58    57    2
    61    88    86   am
    62    32    33    1
    63    81    84    1
    64    81    82    1
    65    47    48    1
    66    60    59    1
    67    85    86    1
    68    85    84    1
    69    50    48   ar
    70    50    52   ar
    71    55    56    1
    72    86    87    2
    73    57    56    1
    74    48    49   ar
    75    82    83    2
    76    33    34    2
    77    33    39   am
    78    52    53   ar
    79    56    59    1
    80    49    51   ar
    81    39    40    1
    82    53    51   ar
    83    53    54    1
    84    40    41    1
    85    42    41    2
