@<TRIPOS>MOLECULE
tmp/1nx9B00.pdb
 146 141 0 0 0
SMALL
GASTEIGER

@<TRIPOS>ATOM
      1  N         53.0220   57.9020  141.4140 N.3    63  TYR63      -0.1227
      2  CA        53.2900   58.3400  142.7870 C.3    63  TYR63       0.1736
      3  C         54.5280   57.7290  143.4460 C.2    63  TYR63       0.2595
      4  O         54.5100   57.4310  144.6430 O.2    63  TYR63      -0.2718
      5  CB        52.0460   58.1320  143.6710 C.3    63  TYR63       0.0548
      6  CG        50.8040   58.8120  143.1270 C.ar   63  TYR63      -0.0200
      7  CD1       50.8000   60.1790  142.8520 C.ar   63  TYR63      -0.0009
      8  CD2       49.6410   58.0890  142.8760 C.ar   63  TYR63      -0.0009
      9  CE1       49.6660   60.8110  142.3450 C.ar   63  TYR63       0.0417
     10  CE2       48.5010   58.7100  142.3700 C.ar   63  TYR63       0.0417
     11  CZ        48.5230   60.0730  142.1070 C.ar   63  TYR63       0.1957
     12  OH        47.4040   60.6980  141.6060 O.3    63  TYR63      -0.2866
     13  N         55.5940   57.5450  142.6630 N.am   64  ASN64      -0.1974
     14  CA        56.8690   57.0300  143.1810 C.3    64  ASN64       0.1688
     15  C         56.8140   55.5780  143.6800 C.2    64  ASN64       0.2292
     16  O         56.5480   55.3230  144.8590 O.2    64  ASN64      -0.2864
     17  CB        57.3990   57.9720  144.2780 C.3    64  ASN64       0.1181
     18  CG        58.7970   57.6160  144.7390 C.2    64  ASN64       0.2629
     19  OD1       59.5730   56.9860  144.0130 O.2    64  ASN64      -0.2716
     20  ND2       59.1300   58.0270  145.9560 N.am   64  ASN64      -0.0877
     21  N         56.1030   53.8130  147.2990 N.3    68  ARG68      -0.1245
     22  CA        54.8870   53.0100  147.4680 C.3    68  ARG68       0.1563
     23  C         55.2060   51.6680  148.1160 C.2    68  ARG68       0.2260
     24  O         54.4420   51.1720  148.9480 O.2    68  ARG68      -0.2867
     25  CB        54.1910   52.7830  146.1190 C.3    68  ARG68       0.0307
     26  CG        53.5760   54.0370  145.4990 C.3    68  ARG68       0.0489
     27  CD        52.3630   54.5790  146.2430 C.3    68  ARG68       0.2205
     28  NE        51.1580   53.7970  145.9780 N.pl3  68  ARG68      -0.0865
     29  CZ        50.4420   53.1780  146.9140 C.cat  68  ARG68       0.5346
     30  NH1       50.8050   53.2420  148.1880 N.pl3  68  ARG68       0.1354
     31  NH2       49.3590   52.4930  146.5750 N.pl3  68  ARG68       0.1354
     32  N         59.2900   59.9000  138.1740 N.3   105  TYR105     -0.1241
     33  CA        60.3090   59.4500  139.1290 C.3   105  TYR105      0.1605
     34  C         61.4950   58.6820  138.5180 C.2   105  TYR105      0.2264
     35  O         62.2970   59.2620  137.7910 O.2   105  TYR105     -0.2867
     36  CB        59.6580   58.7050  140.3130 C.3   105  TYR105      0.0534
     37  CG        58.8620   59.6480  141.1950 C.ar  105  TYR105     -0.0201
     38  CD1       57.5120   59.8970  140.9460 C.ar  105  TYR105     -0.0009
     39  CD2       59.4710   60.3250  142.2500 C.ar  105  TYR105     -0.0009
     40  CE1       56.7830   60.7820  141.7410 C.ar  105  TYR105      0.0417
     41  CE2       58.7530   61.2110  143.0480 C.ar  105  TYR105      0.0417
     42  CZ        57.4120   61.4350  142.7890 C.ar  105  TYR105      0.1957
     43  OH        56.7010   62.3110  143.5770 O.3   105  TYR105     -0.2866
     44  N         44.4070   52.0890  142.8880 N.3   155  SER155     -0.1202
     45  CA        43.3370   53.0580  143.0820 C.3   155  SER155      0.2020
     46  C         43.6240   54.4120  142.4400 C.2   155  SER155      0.2618
     47  O         44.7750   54.8510  142.3860 O.2   155  SER155     -0.2717
     48  CB        43.0470   53.2380  144.5750 C.3   155  SER155      0.2103
     49  OG        41.8360   53.9480  144.7700 O.3   155  SER155     -0.2182
     50  N         42.5610   55.0650  141.9580 N.am  156  ALA156     -0.1979
     51  CA        42.6510   56.3900  141.3260 C.3   156  ALA156      0.1597
     52  C         43.4880   56.3660  140.0400 C.2   156  ALA156      0.2287
     53  O         43.1020   55.7280  139.0610 O.2   156  ALA156     -0.2864
     54  CB        43.1840   57.4180  142.3130 C.3   156  ALA156      0.0319
     55  N         46.2990   54.9780  139.8280 N.3   158  GLU158     -0.1245
     56  CA        46.7880   53.6030  139.8060 C.3   158  GLU158      0.1567
     57  C         45.6750   52.6690  139.3020 C.2   158  GLU158      0.2260
     58  O         45.9310   51.5280  138.9260 O.2   158  GLU158     -0.2867
     59  CB        47.2890   53.1810  141.1910 C.3   158  GLU158      0.0388
     60  CG        48.4300   54.0500  141.7180 C.3   158  GLU158      0.1160
     61  CD        48.9890   53.5700  143.0480 C.2   158  GLU158      0.3649
     62  OE1       48.3380   52.7360  143.7110 O.co2 158  GLU158     -0.2457
     63  OE2       50.0860   54.0340  143.4350 O.co2 158  GLU158     -0.2457
     64  N         47.3800   69.8280  142.2420 N.3   204  TYR204     -0.1241
     65  CA        47.7550   68.5340  141.6860 C.3   204  TYR204      0.1605
     66  C         48.6470   68.7080  140.4560 C.2   204  TYR204      0.2264
     67  O         49.6230   67.9780  140.2830 O.2   204  TYR204     -0.2867
     68  CB        46.5040   67.7140  141.3290 C.3   204  TYR204      0.0534
     69  CG        46.8080   66.3060  140.8580 C.ar  204  TYR204     -0.0201
     70  CD1       46.8140   65.9900  139.4990 C.ar  204  TYR204     -0.0009
     71  CD2       47.0930   65.2920  141.7720 C.ar  204  TYR204     -0.0009
     72  CE1       47.0970   64.7010  139.0630 C.ar  204  TYR204      0.0417
     73  CE2       47.3750   64.0020  141.3470 C.ar  204  TYR204      0.0417
     74  CZ        47.3760   63.7120  139.9920 C.ar  204  TYR204      0.1957
     75  OH        47.6580   62.4360  139.5660 O.3   204  TYR204     -0.2866
     76  N         52.0950   69.8750  141.6030 N.3   207  SER207     -0.1202
     77  CA        52.7440   68.8240  142.3750 C.3   207  SER207      0.2020
     78  C         53.2300   67.6630  141.4940 C.2   207  SER207      0.2618
     79  O         54.3080   67.1060  141.7270 O.2   207  SER207     -0.2717
     80  CB        51.8020   68.2990  143.4610 C.3   207  SER207      0.2103
     81  OG        52.3380   67.1490  144.0850 O.3   207  SER207     -0.2182
     82  N         52.4460   67.3190  140.4730 N.am  208  GLN208     -0.1979
     83  CA        52.7710   66.1780  139.6090 C.3   208  GLN208      0.1601
     84  C         53.5230   66.4950  138.3080 C.2   208  GLN208      0.2287
     85  O         54.1670   65.6140  137.7370 O.2   208  GLN208     -0.2864
     86  CB        51.4980   65.3850  139.2770 C.3   208  GLN208      0.0394
     87  CG        50.8800   64.6650  140.4660 C.3   208  GLN208      0.0908
     88  CD        51.7880   63.5880  141.0340 C.2   208  GLN208      0.2608
     89  OE1       52.3000   63.7270  142.1460 O.2   208  GLN208     -0.2717
     90  NE2       51.9890   62.5120  140.2740 N.am  208  GLN208     -0.0878
     91  N         35.4320   56.5690  151.5290 N.3   320  ARG320     -0.1231
     92  CA        35.7750   57.7740  150.8140 C.3   320  ARG320      0.1694
     93  C         36.7060   57.3080  149.6970 C.2   320  ARG320      0.2592
     94  O         36.9120   56.0980  149.5210 O.2   320  ARG320     -0.2718
     95  CB        36.4820   58.7790  151.7280 C.3   320  ARG320      0.0321
     96  CG        37.4600   58.1610  152.7210 C.3   320  ARG320      0.0489
     97  CD        38.9020   58.2420  152.2980 C.3   320  ARG320      0.2205
     98  NE        39.8170   57.8150  153.3540 N.pl3 320  ARG320     -0.0865
     99  CZ        41.0590   57.3970  153.1370 C.cat 320  ARG320      0.5346
    100  NH1       41.8250   57.0280  154.1550 N.pl3 320  ARG320      0.1354
    101  NH2       41.5390   57.3450  151.8990 N.pl3 320  ARG320      0.1354
    102  N         37.2720   58.2490  148.9510 N.am  321  HIS321     -0.1962
    103  CA        38.1760   57.9140  147.8550 C.3   321  HIS321      0.1787
    104  C         39.3600   57.0510  148.3170 C.2   321  HIS321      0.2620
    105  O         40.0960   57.4310  149.2280 O.2   321  HIS321     -0.2715
    106  CB        38.6860   59.1830  147.1870 C.3   321  HIS321      0.0785
    107  CG        39.6910   58.9310  146.1160 C.ar  321  HIS321      0.0821
    108  ND1       39.3590   58.3660  144.9040 N.ar  321  HIS321     -0.2267
    109  CD2       41.0250   59.1610  146.0730 C.ar  321  HIS321      0.1154
    110  CE1       40.4440   58.2620  144.1590 C.ar  321  HIS321      0.1986
    111  NE2       41.4680   58.7390  144.8440 N.ar  321  HIS321     -0.2212
    112  N         39.5250   55.8910  147.6750 N.am  322  SER322     -0.1950
    113  CA        40.6060   54.9360  147.9940 C.3   322  SER322      0.1924
    114  C         40.5010   54.3310  149.4060 C.2   322  SER322      0.2314
    115  O         41.4330   53.6730  149.8740 O.2   322  SER322     -0.2863
    116  CB        41.9940   55.5690  147.7840 C.3   322  SER322      0.2116
    117  OG        42.1940   55.9310  146.4260 O.3   322  SER322     -0.2180
    118  N         41.4690   50.6440  150.5800 N.3   325  ASN325     -0.1225
    119  CA        42.8190   50.2040  150.9230 C.3   325  ASN325      0.1785
    120  C         43.2740   50.5810  152.3310 C.2   325  ASN325      0.2597
    121  O         44.4590   50.4990  152.6500 O.2   325  ASN325     -0.2718
    122  CB        43.8180   50.7050  149.8830 C.3   325  ASN325      0.1169
    123  CG        43.6740   49.9890  148.5550 C.2   325  ASN325      0.2627
    124  OD1       43.4560   48.7760  148.5130 O.2   325  ASN325     -0.2716
    125  ND2       43.7870   50.7350  147.4640 N.am  325  ASN325     -0.0877
    126  N         42.3280   50.9920  153.1710 N.am  326  TYR326     -0.1976
    127  CA        42.6440   51.3780  154.5470 C.3   326  TYR326      0.1639
    128  C         41.6310   50.7660  155.5180 C.2   326  TYR326      0.2290
    129  O         41.1970   49.6330  155.3170 O.2   326  TYR326     -0.2864
    130  CB        42.7260   52.9120  154.6660 C.3   326  TYR326      0.0560
    131  CG        43.7220   53.5100  153.6830 C.ar  326  TYR326     -0.0198
    132  CD1       43.3090   53.9660  152.4300 C.ar  326  TYR326     -0.0009
    133  CD2       45.0780   53.5810  153.9930 C.ar  326  TYR326     -0.0009
    134  CE1       44.2180   54.4920  151.5210 C.ar  326  TYR326      0.0417
    135  CE2       45.9970   54.1080  153.0900 C.ar  326  TYR326      0.0417
    136  CZ        45.5630   54.5610  151.8590 C.ar  326  TYR326      0.1957
    137  OH        46.4700   55.0830  150.9630 O.3   326  TYR326     -0.2866
    138  N         39.0490   64.5110  152.7880 N.3   445  LYS445     -0.1245
    139  CA        38.6970   63.0870  152.6740 C.3   445  LYS445      0.1561
    140  C         37.2270   62.6990  152.9950 C.2   445  LYS445      0.2260
    141  O         36.5920   62.0260  152.1880 O.2   445  LYS445     -0.2867
    142  CB        39.7010   62.2050  153.4390 C.3   445  LYS445      0.0271
    143  CG        41.0190   62.0000  152.6940 C.3   445  LYS445      0.0035
    144  CD        42.0720   61.3350  153.5760 C.3   445  LYS445      0.0206
    145  CE        43.4370   61.3450  152.9010 C.3   445  LYS445      0.1093
    146  NZ        44.3570   60.3250  153.4780 N.3   445  LYS445     -0.1314
@<TRIPOS>BOND
     1    85    84    2
     2    35    34    2
     3    32    33    1
     4    84    83    1
     5    34    33    1
     6    58    57    2
     7    53    52    2
     8    72    70   ar
     9    72    74   ar
    10    33    36    1
    11    86    83    1
    12    86    87    1
    13    57    56    1
    14    70    69   ar
    15    75    74    1
    16    83    82    1
    17    56    55    1
    18    56    59    1
    19    74    73   ar
    20    52    51    1
    21    90    88   am
    22    67    66    2
    23    36    37    1
    24    66    65    1
    25    87    88    1
    26    82    78   am
    27    69    68    1
    28    69    71   ar
    29    38    37   ar
    30    38    40   ar
    31    88    89    2
    32    59    60    1
    33    37    39   ar
    34    51    50    1
    35    51    54    1
    36    68    65    1
    37    73    71   ar
    38     1     2    1
    39    78    79    2
    40    78    77    1
    41    76    77    1
    42    12    11    1
    43    65    64    1
    44    60    61    1
    45    40    42   ar
    46    50    46   am
    47    11     9   ar
    48    11    10   ar
    49    39    41   ar
    50     9     7   ar
    51    10     8   ar
    52    77    80    1
    53    47    46    2
    54    46    45    1
    55    13    14    1
    56    13     3   am
    57     2     3    1
    58     2     5    1
    59    42    41   ar
    60    42    43    1
    61     7     6   ar
    62     8     6   ar
    63    44    45    1
    64    61    63   ar
    65    61    62   ar
    66    45    48    1
    67     6     5    1
    68    14    15    1
    69    14    17    1
    70     3     4    2
    71    80    81    1
    72    15    16    2
    73    19    18    2
    74   110   111   ar
    75   110   108   ar
    76    17    18    1
    77    48    49    1
    78    18    20   am
    79   111   109   ar
    80   108   107   ar
    81    26    25    1
    82    26    27    1
    83    28    27    1
    84    28    29    2
    85   109   107   ar
    86   107   106    1
    87    25    22    1
    88   117   116    1
    89    31    29    1
    90    29    30    1
    91   106   103    1
    92    21    22    1
    93   125   123   am
    94    22    23    1
    95   112   113    1
    96   112   104   am
    97   116   113    1
    98   103   104    1
    99   103   102    1
   100   113   114    1
   101    23    24    2
   102   104   105    2
   103   124   123    2
   104   123   122    1
   105   102    93   am
   106   114   115    2
   107    94    93    2
   108    93    92    1
   109   122   119    1
   110   118   119    1
   111    92    91    1
   112    92    95    1
   113   119   120    1
   114   137   136    1
   115   134   136   ar
   116   134   132   ar
   117    95    96    1
   118   136   135   ar
   119   101    99    1
   120   141   140    2
   121    97    96    1
   122    97    98    1
   123   120   121    2
   124   120   126   am
   125   132   131   ar
   126   139   138    1
   127   139   140    1
   128   139   142    1
   129   143   142    1
   130   143   144    1
   131   145   146    1
   132   145   144    1
   133   135   133   ar
   134    99    98    2
   135    99   100    1
   136   126   127    1
   137   131   133   ar
   138   131   130    1
   139   127   130    1
   140   127   128    1
   141   129   128    2
