@<TRIPOS>MOLECULE
tmp/1nxjA00.pdb
 99 92 0 0 0
SMALL
GASTEIGER

@<TRIPOS>ATOM
      1  N         14.6950   19.7700   56.6820 N.3    47  ASN47      -0.1240
      2  CA        15.5170   19.1770   55.6370 C.3    47  ASN47       0.1653
      3  C         16.6440   20.0340   55.0690 C.2    47  ASN47       0.2266
      4  O         17.1530   19.7440   53.9890 O.2    47  ASN47      -0.2867
      5  CB        14.6250   18.6700   54.4890 C.3    47  ASN47       0.1155
      6  CG        13.7750   19.7730   53.8610 C.2    47  ASN47       0.2627
      7  OD1       13.9460   20.9540   54.1520 O.2    47  ASN47      -0.2716
      8  ND2       12.8550   19.3810   52.9850 N.am   47  ASN47      -0.0877
      9  N         19.5970   18.4210   52.5840 N.3    51  LYS51      -0.1245
     10  CA        19.6870   19.0470   51.2670 C.3    51  LYS51       0.1561
     11  C         21.1280   19.4730   50.9890 C.2    51  LYS51       0.2260
     12  O         21.6060   19.3590   49.8630 O.2    51  LYS51      -0.2867
     13  CB        18.7640   20.2650   51.1670 C.3    51  LYS51       0.0271
     14  CG        18.7990   20.9310   49.7900 C.3    51  LYS51       0.0035
     15  CD        17.7380   22.0120   49.6510 C.3    51  LYS51       0.0206
     16  CE        17.7940   22.6580   48.2700 C.3    51  LYS51       0.1093
     17  NZ        16.7720   23.7280   48.1040 N.3    51  LYS51      -0.1314
     18  N          7.1300   16.7440   54.7750 N.3    74  ALA74      -0.1245
     19  CA         7.8520   16.0840   53.6980 C.3    74  ALA74       0.1562
     20  C          9.3350   16.4030   53.8040 C.2    74  ALA74       0.2260
     21  O          9.7350   17.5600   53.6970 O.2    74  ALA74      -0.2867
     22  CB         7.3180   16.5470   52.3450 C.3    74  ALA74       0.0290
     23  N         11.5690   15.0360   51.7540 N.3    76  VAL76      -0.1231
     24  CA        12.0230   15.0910   50.3700 C.3    76  VAL76       0.1692
     25  C         10.8470   15.3130   49.4210 C.2    76  VAL76       0.2593
     26  O          9.7990   14.6820   49.5630 O.2    76  VAL76      -0.2718
     27  CB        12.7350   13.7760   49.9540 C.3    76  VAL76       0.0266
     28  CG1       13.1470   13.8460   48.4840 C.3    76  VAL76       0.0020
     29  CG2       13.9600   13.5400   50.8310 C.3    76  VAL76       0.0020
     30  N         11.0400   16.2220   48.4670 N.am   77  GLY77      -0.1942
     31  CA        10.0340   16.5220   47.4590 C.3    77  GLY77       0.2014
     32  C         10.7220   16.4420   46.1040 C.2    77  GLY77       0.2639
     33  O         11.8460   15.9330   46.0180 O.2    77  GLY77      -0.2714
     34  N         10.1000   16.9470   45.0410 N.am   78  ASP78      -0.1957
     35  CA        10.7570   16.8480   43.7410 C.3    78  ASP78       0.1840
     36  C         11.9900   17.7370   43.5810 C.2    78  ASP78       0.2622
     37  O         12.8350   17.4750   42.7290 O.2    78  ASP78      -0.2715
     38  CB         9.7620   17.0800   42.5860 C.3    78  ASP78       0.1450
     39  CG         9.1910   18.4870   42.5520 C.2    78  ASP78       0.3671
     40  OD1        9.6090   19.3520   43.3460 O.co2  78  ASP78      -0.2456
     41  OD2        8.3090   18.7230   41.7010 O.co2  78  ASP78      -0.2456
     42  N         12.1160   18.7680   44.4100 N.am   79  VAL79      -0.1963
     43  CA        13.2790   19.6460   44.3200 C.3    79  VAL79       0.1727
     44  C         14.5250   18.9360   44.8380 C.2    79  VAL79       0.2616
     45  O         15.5440   18.8750   44.1510 O.2    79  VAL79      -0.2715
     46  CB        13.0710   20.9510   45.1230 C.3    79  VAL79       0.0290
     47  CG1       14.3620   21.7760   45.1440 C.3    79  VAL79       0.0023
     48  CG2       11.9410   21.7600   44.4990 C.3    79  VAL79       0.0023
     49  N         14.4440   18.3890   46.0470 N.am   80  ILE80      -0.1977
     50  CA        15.5840   17.6890   46.6280 C.3    80  ILE80       0.1596
     51  C         15.8920   16.3800   45.8970 C.2    80  ILE80       0.2287
     52  O         17.0600   16.0120   45.7350 O.2    80  ILE80      -0.2864
     53  CB        15.3590   17.4260   48.1350 C.3    80  ILE80       0.0276
     54  CG1       15.3290   18.7660   48.8780 C.3    80  ILE80       0.0022
     55  CG2       16.4590   16.5320   48.6900 C.3    80  ILE80       0.0022
     56  CD1       15.1360   18.6540   50.3800 C.3    80  ILE80       0.0001
     57  N          6.8690   14.3850   49.4980 N.3    99  ARG99      -0.1231
     58  CA         5.7900   15.1180   48.8280 C.3    99  ARG99       0.1694
     59  C          6.0470   15.0220   47.3170 C.2    99  ARG99       0.2592
     60  O          7.1010   14.5380   46.8970 O.2    99  ARG99      -0.2718
     61  CB         5.7850   16.5940   49.2580 C.3    99  ARG99       0.0321
     62  CG         6.7090   17.4550   48.4140 C.3    99  ARG99       0.0489
     63  CD         6.9890   18.8540   48.9650 C.3    99  ARG99       0.2205
     64  NE         5.8070   19.6360   49.2930 N.pl3  99  ARG99      -0.0865
     65  CZ         5.6810   20.9460   49.0650 C.cat  99  ARG99       0.5346
     66  NH1        6.6560   21.6350   48.4850 N.pl3  99  ARG99       0.1354
     67  NH2        4.5920   21.5840   49.4660 N.pl3  99  ARG99       0.1354
     68  N          5.1000   15.4970   46.5090 N.am  100  ASP100     -0.1974
     69  CA         5.2290   15.4560   45.0480 C.3   100  ASP100      0.1709
     70  C          5.3310   14.0220   44.5450 C.2   100  ASP100      0.2293
     71  O          6.0490   13.7390   43.5770 O.2   100  ASP100     -0.2864
     72  CB         6.4690   16.2270   44.5910 C.3   100  ASP100      0.1436
     73  CG         6.4880   17.6490   45.0940 C.2   100  ASP100      0.3671
     74  OD1        5.4540   18.3390   44.9770 O.co2 100  ASP100     -0.2456
     75  OD2        7.5440   18.0770   45.6010 O.co2 100  ASP100     -0.2456
     76  N          5.4090   21.2400   54.3280 N.3   120  LYS120     -0.1231
     77  CA         6.8500   21.3450   54.2020 C.3   120  LYS120      0.1693
     78  C          7.6010   21.2390   55.5170 C.2   120  LYS120      0.2592
     79  O          7.0550   21.5120   56.5890 O.2   120  LYS120     -0.2718
     80  CB         7.2200   22.6570   53.5070 C.3   120  LYS120      0.0285
     81  CG         6.7120   22.7300   52.0740 C.3   120  LYS120      0.0035
     82  CD         7.2830   23.9210   51.3200 C.3   120  LYS120      0.0206
     83  CE         6.8190   25.2370   51.9110 C.3   120  LYS120      0.1093
     84  NZ         7.1940   26.3820   51.0290 N.3   120  LYS120     -0.1314
     85  N          8.8590   20.8230   55.4170 N.am  121  SER121     -0.1952
     86  CA         9.7280   20.7080   56.5760 C.3   121  SER121      0.1924
     87  C         10.3830   22.0720   56.7640 C.2   121  SER121      0.2314
     88  O         10.4090   22.8840   55.8380 O.2   121  SER121     -0.2863
     89  CB        10.8170   19.6570   56.3300 C.3   121  SER121      0.2116
     90  OG        10.2640   18.3600   56.1820 O.3   121  SER121     -0.2180
     91  N         13.6940   24.6460   57.6160 N.3   123  LYS123     -0.1245
     92  CA        15.0470   24.6780   57.0790 C.3   123  LYS123      0.1561
     93  C         16.0440   25.3280   58.0400 C.2   123  LYS123      0.2260
     94  O         16.8250   26.1850   57.6350 O.2   123  LYS123     -0.2867
     95  CB        15.0690   25.4390   55.7430 C.3   123  LYS123      0.0271
     96  CG        14.1970   24.8450   54.6260 C.3   123  LYS123      0.0035
     97  CD        12.7110   25.0830   54.8690 C.3   123  LYS123      0.0206
     98  CE        11.8590   24.6220   53.6790 C.3   123  LYS123      0.1093
     99  NZ        12.0410   23.1740   53.3740 N.3   123  LYS123     -0.1314
@<TRIPOS>BOND
     1    41    39   ar
     2    39    38    1
     3    39    40   ar
     4    38    35    1
     5    37    36    2
     6    71    70    2
     7    36    35    1
     8    36    42   am
     9    35    34    1
    10    45    44    2
    11    43    42    1
    12    43    44    1
    13    43    46    1
    14    48    46    1
    15    70    69    1
    16    72    69    1
    17    72    73    1
    18    44    49   am
    19    74    73   ar
    20    34    32   am
    21    69    68    1
    22    73    75   ar
    23    46    47    1
    24    52    51    2
    25    51    50    1
    26    33    32    2
    27    49    50    1
    28    32    31    1
    29    68    59   am
    30    50    53    1
    31    60    59    2
    32    59    58    1
    33    31    30    1
    34    17    16    1
    35    53    55    1
    36    53    54    1
    37    16    15    1
    38    62    63    1
    39    62    61    1
    40    30    25   am
    41    28    27    1
    42    66    65    1
    43    58    61    1
    44    58    57    1
    45    54    56    1
    46    63    64    1
    47    65    64    2
    48    65    67    1
    49    25    26    2
    50    25    24    1
    51    15    14    1
    52    14    13    1
    53    12    11    2
    54    27    24    1
    55    27    29    1
    56    24    23    1
    57    11    10    1
    58    84    83    1
    59    13    10    1
    60    10     9    1
    61    82    83    1
    62    82    81    1
    63    81    80    1
    64    22    19    1
    65     8     6   am
    66    99    98    1
    67    80    77    1
    68    98    97    1
    69    21    20    2
    70    19    20    1
    71    19    18    1
    72     6     7    2
    73     6     5    1
    74     4     3    2
    75    77    76    1
    76    77    78    1
    77     5     2    1
    78    96    97    1
    79    96    95    1
    80     3     2    1
    81    85    78   am
    82    85    86    1
    83    78    79    2
    84     2     1    1
    85    95    92    1
    86    88    87    2
    87    90    89    1
    88    89    86    1
    89    86    87    1
    90    92    91    1
    91    92    93    1
    92    94    93    2
