@<TRIPOS>MOLECULE
tmp/1nxyA00.pdb
 128 120 0 0 0
SMALL
GASTEIGER

@<TRIPOS>ATOM
      1  N         21.4140   -0.2200   33.1430 N.3    45  SER45      -0.1217
      2  CA        20.2780   -0.3520   34.0510 C.3    45  SER45       0.1889
      3  C         19.3550   -1.5610   33.8030 C.2    45  SER45       0.2288
      4  O         18.5020   -1.8700   34.6410 O.2    45  SER45      -0.2866
      5  CB        19.4940    0.9930   34.0550 C.3    45  SER45       0.2089
      6  OG        20.2510    1.8350   34.9550 O.3    45  SER45      -0.2183
      7  N         24.5900    9.1040   42.1860 N.3    79  GLU79      -0.1231
      8  CA        23.8930    9.8300   41.1420 C.3    79  GLU79       0.1699
      9  C         22.6430    9.1180   40.6340 C.2    79  GLU79       0.2592
     10  O         22.5490    7.8850   40.6490 O.2    79  GLU79      -0.2718
     11  CB        24.8490   10.1190   39.9960 C.3    79  GLU79       0.0402
     12  CG        25.3180    8.8630   39.2930 C.3    79  GLU79       0.1161
     13  CD        26.5230    9.1310   38.4570 C.2    79  GLU79       0.3649
     14  OE1       27.5820    9.4170   39.0490 O.co2  79  GLU79      -0.2457
     15  OE2       26.4140    9.0750   37.2100 O.co2  79  GLU79      -0.2457
     16  N         21.6940    9.9240   40.1740 N.am   80  TYR80      -0.1976
     17  CA        20.4170    9.4760   39.6440 C.3    80  TYR80       0.1639
     18  C         19.6410    8.5960   40.6080 C.2    80  TYR80       0.2290
     19  O         19.4480    7.4060   40.3620 O.2    80  TYR80      -0.2864
     20  CB        20.5900    8.7350   38.3110 C.3    80  TYR80       0.0560
     21  CG        19.3740    8.9060   37.4260 C.ar   80  TYR80      -0.0198
     22  CD1       19.3770    9.8220   36.3720 C.ar   80  TYR80      -0.0009
     23  CD2       18.1850    8.2310   37.7090 C.ar   80  TYR80      -0.0009
     24  CE1       18.2240   10.0660   35.6260 C.ar   80  TYR80       0.0417
     25  CE2       17.0240    8.4680   36.9730 C.ar   80  TYR80       0.0417
     26  CZ        17.0500    9.3880   35.9330 C.ar   80  TYR80       0.1957
     27  OH        15.8940    9.6300   35.2260 O.3    80  TYR80      -0.2866
     28  N         14.5810    3.6730   37.4590 N.3   105  SER105     -0.1217
     29  CA        15.9970    3.3710   37.2550 C.3   105  SER105      0.1889
     30  C         16.8360    3.9770   38.3790 C.2   105  SER105      0.2288
     31  O         17.9920    4.3340   38.1770 O.2   105  SER105     -0.2866
     32  CB        16.4770    3.9140   35.9200 C.3   105  SER105      0.2089
     33  OG        17.4390    3.0480   35.3530 O.3   105  SER105     -0.2183
     34  N         19.3380    4.5460   41.0240 N.3   107  ASN107     -0.1240
     35  CA        20.6210    3.8720   41.2780 C.3   107  ASN107      0.1653
     36  C         20.8630    3.4500   42.7250 C.2   107  ASN107      0.2266
     37  O         21.3720    2.3520   42.9730 O.2   107  ASN107     -0.2867
     38  CB        21.7930    4.7450   40.8390 C.3   107  ASN107      0.1155
     39  CG        22.0280    4.7040   39.3490 C.2   107  ASN107      0.2627
     40  OD1       21.6280    3.7650   38.6790 O.2   107  ASN107     -0.2716
     41  ND2       22.7090    5.7310   38.8210 N.am  107  ASN107     -0.0877
     42  N         26.3420    0.6550   41.0440 N.3   141  GLU141     -0.1231
     43  CA        25.9840    1.8780   40.3440 C.3   141  GLU141      0.1684
     44  C         26.8410    2.9590   40.9950 C.2   141  GLU141      0.2434
     45  O         26.9860    2.9740   42.2150 O.2   141  GLU141     -0.2733
     46  CB        24.5070    2.2140   40.5640 C.3   141  GLU141      0.0402
     47  CG        23.5330    1.3820   39.7240 C.3   141  GLU141      0.1161
     48  CD        23.6110    1.6750   38.2520 C.2   141  GLU141      0.3649
     49  OE1       24.4810    2.4740   37.8390 O.co2 141  GLU141     -0.2457
     50  OE2       22.7920    1.0950   37.4890 O.co2 141  GLU141     -0.2457
     51  N         27.3800    3.8960   40.2080 N.am  142  PRO142     -0.2729
     52  CA        27.2820    4.0830   38.7600 C.3   142  PRO142      0.1401
     53  C         28.4320    3.5130   37.9160 C.2   142  PRO142      0.2269
     54  O         28.4070    3.6360   36.6980 O.2   142  PRO142     -0.2865
     55  CB        27.2390    5.6070   38.6440 C.3   142  PRO142      0.0296
     56  CG        28.3000    5.9870   39.6680 C.3   142  PRO142      0.0237
     57  CD        27.9470    5.1060   40.8450 C.3   142  PRO142      0.0939
     58  N         28.4020    1.2540   34.4240 N.3   145  ASN145     -0.1240
     59  CA        28.0300    1.8090   33.1170 C.3   145  ASN145      0.1653
     60  C         29.2430    2.2970   32.3150 C.2   145  ASN145      0.2266
     61  O         29.0800    2.9060   31.2540 O.2   145  ASN145     -0.2867
     62  CB        27.0970    3.0110   33.3060 C.3   145  ASN145      0.1155
     63  CG        25.8380    2.6610   34.0890 C.2   145  ASN145      0.2627
     64  OD1       24.9400    1.9950   33.5670 O.2   145  ASN145     -0.2716
     65  ND2       25.7740    3.0970   35.3440 N.am  145  ASN145     -0.0877
     66  N         10.5950    5.7120   32.7890 N.3   191  VAL191     -0.1245
     67  CA        11.6510    6.4080   32.0730 C.3   191  VAL191      0.1561
     68  C         12.1060    5.8800   30.7270 C.2   191  VAL191      0.2260
     69  O         13.1730    6.2700   30.2490 O.2   191  VAL191     -0.2867
     70  CB        12.8750    6.5450   32.9770 C.3   191  VAL191      0.0252
     71  CG1       12.5680    7.5270   34.0980 C.3   191  VAL191      0.0019
     72  CG2       13.2380    5.1820   33.5640 C.3   191  VAL191      0.0019
     73  N         12.4200   -2.3190   30.5910 N.3   209  LYS209     -0.1231
     74  CA        13.4580   -1.7140   31.4130 C.3   209  LYS209      0.1693
     75  C         14.5290   -1.2180   30.4590 C.2   209  LYS209      0.2593
     76  O         15.0500   -1.9990   29.6460 O.2   209  LYS209     -0.2718
     77  CB        14.0790   -2.7130   32.3800 C.3   209  LYS209      0.0285
     78  CG        15.1580   -2.0540   33.2340 C.3   209  LYS209      0.0035
     79  CD        14.5050   -1.1380   34.3100 C.3   209  LYS209      0.0206
     80  CE        15.4770   -0.1410   34.9230 C.3   209  LYS209      0.1093
     81  NZ        15.8190    0.9750   33.9880 N.3   209  LYS209     -0.1314
     82  N         14.8410    0.0700   30.5330 N.am  210  SER210     -0.1938
     83  CA        15.8610    0.6070   29.6470 C.3   210  SER210      0.2055
     84  C         17.2030    0.7200   30.3490 C.2   210  SER210      0.2644
     85  O         17.3330    0.4660   31.5520 O.2   210  SER210     -0.2714
     86  CB        15.4450    1.9890   29.1350 C.3   210  SER210      0.2130
     87  OG        15.1960    2.8710   30.2140 O.3   210  SER210     -0.2179
     88  N         18.1940    1.1170   29.5670 N.am  211  GLY211     -0.1939
     89  CA        19.5140    1.3420   30.1020 C.3   211  GLY211      0.2014
     90  C         20.2620    2.3760   29.2870 C.2   211  GLY211      0.2639
     91  O         20.0510    2.5200   28.0620 O.2   211  GLY211     -0.2714
     92  N         21.1150    3.1370   29.9670 N.am  212  ALA212     -0.1963
     93  CA        21.9620    4.1240   29.3060 C.3   212  ALA212      0.1728
     94  C         23.2900    4.0930   30.0540 C.2   212  ALA212      0.2617
     95  O         23.3190    3.9280   31.2840 O.2   212  ALA212     -0.2715
     96  CB        21.3260    5.5390   29.3670 C.3   212  ALA212      0.0334
     97  N         24.3840    4.2570   29.3170 N.am  213  GLY213     -0.1940
     98  CA        25.6990    4.2330   29.9420 C.3   213  GLY213      0.2014
     99  C         26.6880    5.0700   29.1650 C.2   213  GLY213      0.2638
    100  O         26.3280    5.7840   28.2450 O.2   213  GLY213     -0.2714
    101  N         27.9520    4.9660   29.5540 N.am  214  GLU214     -0.1977
    102  CA        29.0050    5.7150   28.9100 C.3   214  GLU214      0.1602
    103  C         29.2550    5.2040   27.5110 C.2   214  GLU214      0.2287
    104  O         28.7360    4.1580   27.1090 O.2   214  GLU214     -0.2864
    105  CB        30.2900    5.6100   29.7310 C.3   214  GLU214      0.0415
    106  CG        30.1540    6.1930   31.1190 C.3   214  GLU214      0.1163
    107  CD        30.0170    7.7040   31.0970 C.2   214  GLU214      0.3649
    108  OE1       29.5110    8.2660   32.0880 O.co2 214  GLU214     -0.2457
    109  OE2       30.4230    8.3370   30.0970 O.co2 214  GLU214     -0.2457
    110  N         23.3360    2.1220   25.1050 N.3   218  ARG218     -0.1245
    111  CA        21.9010    2.2980   25.2780 C.3   218  ARG218      0.1563
    112  C         21.2470    0.9350   25.0460 C.2   218  ARG218      0.2260
    113  O         21.7440    0.1300   24.2670 O.2   218  ARG218     -0.2867
    114  CB        21.3930    3.3040   24.2500 C.3   218  ARG218      0.0307
    115  CG        19.9540    3.8010   24.4540 C.3   218  ARG218      0.0489
    116  CD        19.9340    4.8340   25.5920 C.3   218  ARG218      0.2205
    117  NE        18.6570    5.5580   25.6750 N.pl3 218  ARG218     -0.0865
    118  CZ        17.8290    5.5020   26.7110 C.cat 218  ARG218      0.5346
    119  NH1       18.1060    4.7390   27.7670 N.pl3 218  ARG218      0.1354
    120  NH2       16.7380    6.2710   26.7240 N.pl3 218  ARG218      0.1354
    121  N         22.0030   11.1890   22.4850 N.3   245  MET245     -0.1245
    122  CA        21.0000   10.3890   23.1670 C.3   245  MET245      0.1570
    123  C         19.7380   10.3710   22.2980 C.2   245  MET245      0.2261
    124  O         19.1060    9.3180   22.1050 O.2   245  MET245     -0.2867
    125  CB        20.7140   11.0110   24.5450 C.3   245  MET245      0.0387
    126  CG        19.7050   10.2520   25.3900 C.3   245  MET245      0.0595
    127  SD        20.2750    8.5990   25.8550 S.3   245  MET245     -0.1393
    128  CE        21.3910    8.9050   27.1410 C.3   245  MET245      0.0692
@<TRIPOS>BOND
     1   124   123    2
     2   123   122    1
     3   121   122    1
     4   122   125    1
     5   114   115    1
     6   114   111    1
     7   113   112    2
     8   115   116    1
     9   125   126    1
    10   112   111    1
    11   110   111    1
    12   126   127    1
    13   116   117    1
    14   117   118    2
    15   127   128    1
    16   118   120    1
    17   118   119    1
    18   104   103    2
    19   103   102    1
    20    91    90    2
    21   100    99    2
    22   102   101    1
    23   102   105    1
    24    86    83    1
    25    86    87    1
    26    99   101   am
    27    99    98    1
    28    90    92   am
    29    90    89    1
    30    93    96    1
    31    93    92    1
    32    93    94    1
    33    97    98    1
    34    97    94   am
    35    88    89    1
    36    88    84   am
    37    76    75    2
    38    83    84    1
    39    83    82    1
    40   105   106    1
    41    94    95    2
    42   109   107   ar
    43    69    68    2
    44    84    85    2
    45    75    82   am
    46    75    74    1
    47    73    74    1
    48    68    67    1
    49   107   106    1
    50   107   108   ar
    51    61    60    2
    52    74    77    1
    53    67    66    1
    54    67    70    1
    55    60    59    1
    56    77    78    1
    57    70    72    1
    58    70    71    1
    59    59    62    1
    60    59    58    1
    61     1     2    1
    62    78    79    1
    63    62    63    1
    64    64    63    2
    65     3     2    1
    66     3     4    2
    67    81    80    1
    68     2     5    1
    69     5     6    1
    70    63    65   am
    71    79    80    1
    72    27    26    1
    73    33    32    1
    74    24    26   ar
    75    24    22   ar
    76    32    29    1
    77    26    25   ar
    78    22    21   ar
    79    54    53    2
    80    25    23   ar
    81    15    13   ar
    82    29    28    1
    83    29    30    1
    84    21    23   ar
    85    21    20    1
    86    50    48   ar
    87    49    48   ar
    88    53    52    1
    89    31    30    2
    90    48    47    1
    91    20    17    1
    92    13    14   ar
    93    13    12    1
    94    55    52    1
    95    55    56    1
    96    40    39    2
    97    52    51    1
    98    41    39   am
    99    12    11    1
   100    39    38    1
   101    17    16    1
   102    17    18    1
   103    56    57    1
   104    47    46    1
   105    11     8    1
   106    16     9   am
   107    51    57    1
   108    51    44   am
   109    43    46    1
   110    43    44    1
   111    43    42    1
   112    19    18    2
   113     9    10    2
   114     9     8    1
   115    38    35    1
   116    44    45    2
   117    34    35    1
   118     8     7    1
   119    35    36    1
   120    36    37    2
