@<TRIPOS>MOLECULE
tmp/1ny0A00.pdb
 100 93 0 0 0
SMALL
GASTEIGER

@<TRIPOS>ATOM
      1  N         10.5760    4.6780   35.5640 N.3    45  SER45      -0.1217
      2  CA         9.2710    4.8140   36.1990 C.3    45  SER45       0.1889
      3  C          8.0840    4.0750   35.5920 C.2    45  SER45       0.2288
      4  O          7.0150    4.0170   36.2190 O.2    45  SER45      -0.2866
      5  CB         8.9150    6.2790   36.3760 C.3    45  SER45       0.2089
      6  OG         9.8080    6.8660   37.3110 O.3    45  SER45      -0.2183
      7  N          6.0830    1.6130   37.6140 N.3    48  LYS48      -0.1245
      8  CA         5.1010    2.0130   38.6110 C.3    48  LYS48       0.1561
      9  C          3.6780    1.5510   38.2970 C.2    48  LYS48       0.2260
     10  O          2.8590    1.3530   39.2090 O.2    48  LYS48      -0.2867
     11  CB         5.1840    3.5350   38.8320 C.3    48  LYS48       0.0271
     12  CG         6.5140    3.9140   39.5000 C.3    48  LYS48       0.0035
     13  CD         6.7330    5.4310   39.6080 C.3    48  LYS48       0.0206
     14  CE         8.1480    5.7450   40.0820 C.3    48  LYS48       0.1093
     15  NZ         8.5280    7.1870   39.9160 N.3    48  LYS48      -0.1314
     16  N         15.0260   11.2750   46.2690 N.3    79  GLU79      -0.1231
     17  CA        15.0130   12.2890   45.2050 C.3    79  GLU79       0.1699
     18  C         13.6850   12.2410   44.4260 C.2    79  GLU79       0.2592
     19  O         13.1610   11.1690   44.1060 O.2    79  GLU79      -0.2718
     20  CB        16.1670   12.0560   44.2330 C.3    79  GLU79       0.0402
     21  CG        17.5370   12.1130   44.9100 C.3    79  GLU79       0.1161
     22  CD        18.0020   10.7520   45.4110 C.2    79  GLU79       0.3649
     23  OE1       17.2020   10.0160   46.1010 O.co2  79  GLU79      -0.2457
     24  OE2       19.1910   10.3410   45.1430 O.co2  79  GLU79      -0.2457
     25  N         13.2080   13.4290   44.1600 N.am   80  TYR80      -0.1976
     26  CA        11.9560   13.6910   43.4240 C.3    80  TYR80       0.1639
     27  C         10.7430   12.9790   44.0370 C.2    80  TYR80       0.2290
     28  O         10.3260   11.9040   43.5810 O.2    80  TYR80      -0.2864
     29  CB        12.0410   13.2310   41.9770 C.3    80  TYR80       0.0560
     30  CG        10.7870   13.6290   41.2000 C.ar   80  TYR80      -0.0198
     31  CD1       10.5810   14.9690   40.8520 C.ar   80  TYR80      -0.0009
     32  CD2        9.8440   12.6600   40.8440 C.ar   80  TYR80      -0.0009
     33  CE1        9.4310   15.3400   40.1510 C.ar   80  TYR80       0.0417
     34  CE2        8.6920   13.0310   40.1440 C.ar   80  TYR80       0.0417
     35  CZ         8.4840   14.3720   39.7980 C.ar   80  TYR80       0.1957
     36  OH         7.3620   14.7340   39.1220 O.3    80  TYR80      -0.2866
     37  N          4.6910   10.5580   39.1800 N.3   105  SER105     -0.1217
     38  CA         5.8840    9.7140   39.1790 C.3   105  SER105      0.1889
     39  C          6.6720    9.9150   40.4720 C.2   105  SER105      0.2288
     40  O          7.8990    9.8130   40.4950 O.2   105  SER105     -0.2866
     41  CB         6.7750   10.0110   37.9710 C.3   105  SER105      0.2089
     42  OG         7.5360    8.8670   37.6240 O.3   105  SER105     -0.2183
     43  N          8.6780    9.3010   43.4830 N.3   107  ASN107     -0.1240
     44  CA         9.5350    8.1600   43.7990 C.3   107  ASN107      0.1653
     45  C          9.3750    7.5890   45.1910 C.2   107  ASN107      0.2266
     46  O          9.4370    6.3690   45.3710 O.2   107  ASN107     -0.2867
     47  CB        11.0100    8.4970   43.5530 C.3   107  ASN107      0.1155
     48  CG        11.3420    8.5660   42.0770 C.2   107  ASN107      0.2627
     49  OD1       10.8020    7.7900   41.2840 O.2   107  ASN107     -0.2716
     50  ND2       12.2390    9.4830   41.7010 N.am  107  ASN107     -0.0877
     51  N         13.8640    2.9890   44.3990 N.3   141  GLU141     -0.1231
     52  CA        14.1570    4.3280   43.9130 C.3   141  GLU141      0.1684
     53  C         15.2330    4.8620   44.8640 C.2   141  GLU141      0.2434
     54  O         15.1810    4.6180   46.0680 O.2   141  GLU141     -0.2733
     55  CB        12.9200    5.2280   43.9700 C.3   141  GLU141      0.0402
     56  CG        11.7610    4.8220   43.0630 C.3   141  GLU141      0.1161
     57  CD        12.0360    5.0630   41.5860 C.2   141  GLU141      0.3649
     58  OE1       13.1030    5.6280   41.2430 O.co2 141  GLU141     -0.2457
     59  OE2       11.1680    4.7010   40.7650 O.co2 141  GLU141     -0.2457
     60  N         16.1990    5.6280   44.3420 N.am  142  PRO142     -0.2729
     61  CA        16.3780    6.0480   42.9450 C.3   142  PRO142      0.1401
     62  C         17.2970    5.1700   42.1010 C.2   142  PRO142      0.2269
     63  O         17.3980    5.3720   40.8900 O.2   142  PRO142     -0.2865
     64  CB        16.9670    7.4370   43.1030 C.3   142  PRO142      0.0296
     65  CG        17.9550    7.1910   44.2190 C.3   142  PRO142      0.0237
     66  CD        17.1590    6.3290   45.2150 C.3   142  PRO142      0.0939
     67  N         16.9600    3.4370   38.3810 N.3   145  ASN145     -0.1240
     68  CA        17.0420    4.2380   37.1600 C.3   145  ASN145      0.1653
     69  C         18.4830    4.4010   36.6430 C.2   145  ASN145      0.2266
     70  O         18.7220    5.1470   35.6790 O.2   145  ASN145     -0.2867
     71  CB        16.4690    5.6370   37.4260 C.3   145  ASN145      0.1155
     72  CG        15.0280    5.5920   37.9030 C.2   145  ASN145      0.2627
     73  OD1       14.1210    5.2380   37.1410 O.2   145  ASN145     -0.2716
     74  ND2       14.8130    5.9400   39.1630 N.am  145  ASN145     -0.0877
     75  N         12.1690    8.1090   33.0560 N.3   212  ALA212     -0.1231
     76  CA        13.4240    8.7850   32.7470 C.3   212  ALA212      0.1694
     77  C         14.5070    8.2510   33.6990 C.2   212  ALA212      0.2593
     78  O         14.2420    7.9710   34.8730 O.2   212  ALA212     -0.2718
     79  CB        13.2780   10.3050   32.9240 C.3   212  ALA212      0.0304
     80  N         15.7230    8.1110   33.1880 N.am  213  GLY213     -0.1942
     81  CA        16.8120    7.6350   34.0180 C.3   213  GLY213      0.2014
     82  C         18.1360    8.2130   33.5650 C.2   213  GLY213      0.2638
     83  O         18.1780    9.1570   32.7690 O.2   213  GLY213     -0.2714
     84  N         19.2240    7.6640   34.0860 N.am  214  GLU214     -0.1977
     85  CA        20.5520    8.1320   33.7110 C.3   214  GLU214      0.1602
     86  C         20.8850    7.6370   32.3030 C.2   214  GLU214      0.2287
     87  O         20.1370    6.8490   31.7060 O.2   214  GLU214     -0.2864
     88  CB        21.5940    7.5980   34.6970 C.3   214  GLU214      0.0415
     89  CG        21.4510    8.1040   36.1240 C.3   214  GLU214      0.1163
     90  CD        22.4960    7.4910   37.0480 C.2   214  GLU214      0.3649
     91  OE1       23.6930    7.5440   36.7090 O.co2 214  GLU214     -0.2457
     92  OE2       22.1230    6.9570   38.1030 O.co2 214  GLU214     -0.2457
     93  N         16.9430   16.2600   27.4220 N.3   245  MET245     -0.1245
     94  CA        15.6170   15.7510   27.7080 C.3   245  MET245      0.1570
     95  C         14.6280   16.2690   26.6450 C.2   245  MET245      0.2261
     96  O         13.8010   15.5030   26.1620 O.2   245  MET245     -0.2867
     97  CB        15.1820   16.1890   29.1060 C.3   245  MET245      0.0387
     98  CG        13.8760   15.5910   29.5880 C.3   245  MET245      0.0595
     99  SD        13.9300   13.7820   29.8050 S.3   245  MET245     -0.1393
    100  CE        14.7790   13.6210   31.3560 C.3   245  MET245      0.0692
@<TRIPOS>BOND
     1    96    95    2
     2    95    94    1
     3    93    94    1
     4    94    97    1
     5    97    98    1
     6    98    99    1
     7    99   100    1
     8    87    86    2
     9    86    85    1
    10    76    79    1
    11    76    75    1
    12    76    77    1
    13    83    82    2
    14    80    77   am
    15    80    81    1
    16    82    81    1
    17    82    84   am
    18    77    78    2
    19    85    84    1
    20    85    88    1
    21    88    89    1
    22     1     2    1
    23     3     2    1
    24     3     4    2
    25    70    69    2
    26    89    90    1
    27     2     5    1
    28     5     6    1
    29    69    68    1
    30    91    90   ar
    31    90    92   ar
    32    73    72    2
    33    68    71    1
    34    68    67    1
    35    71    72    1
    36     7     8    1
    37    42    41    1
    38    72    74   am
    39    41    38    1
    40     9     8    1
    41     9    10    2
    42     8    11    1
    43    11    12    1
    44    36    35    1
    45    38    37    1
    46    38    39    1
    47    12    13    1
    48    13    14    1
    49    35    34   ar
    50    35    33   ar
    51    15    14    1
    52    34    32   ar
    53    33    31   ar
    54    39    40    2
    55    59    57   ar
    56    32    30   ar
    57    31    30   ar
    58    63    62    2
    59    30    29    1
    60    58    57   ar
    61    49    48    2
    62    57    56    1
    63    50    48   am
    64    29    26    1
    65    48    47    1
    66    62    61    1
    67    61    64    1
    68    61    60    1
    69    56    55    1
    70    64    65    1
    71    26    27    1
    72    26    25    1
    73    43    44    1
    74    47    44    1
    75    28    27    2
    76    44    45    1
    77    52    55    1
    78    52    51    1
    79    52    53    1
    80    19    18    2
    81    25    18   am
    82    65    66    1
    83    20    21    1
    84    20    17    1
    85    60    53   am
    86    60    66    1
    87    18    17    1
    88    53    54    2
    89    21    22    1
    90    24    22   ar
    91    45    46    2
    92    17    16    1
    93    22    23   ar
