@<TRIPOS>MOLECULE
tmp/1ny2B01.pdb
 179 180 0 0 0
SMALL
GASTEIGER

@<TRIPOS>ATOM
      1  N         32.1630   29.4830    2.1600 N.3    43  HIS43      -0.1241
      2  CA        32.8560   30.3150    1.2190 C.3    43  HIS43       0.1621
      3  C         34.3850   30.2110    1.1450 C.2    43  HIS43       0.2264
      4  O         35.0370   30.8750    0.3230 O.2    43  HIS43      -0.2867
      5  CB        32.3740   31.7720    1.3360 C.3    43  HIS43       0.0745
      6  CG        33.3240   32.6450    2.0890 C.ar   43  HIS43       0.0817
      7  ND1       33.0630   33.1120    3.3680 N.ar   43  HIS43      -0.2268
      8  CD2       34.4690   33.2250    1.7140 C.ar   43  HIS43       0.1154
      9  CE1       34.0510   33.8870    3.7780 C.ar   43  HIS43       0.1986
     10  NE2       34.9290   33.9340    2.8020 N.ar   43  HIS43      -0.2212
     11  N         33.4910   29.9750   -3.7300 N.3    47  TYR47      -0.1241
     12  CA        33.1980   31.3740   -4.0240 C.3    47  TYR47       0.1605
     13  C         33.4370   31.6920   -5.5040 C.2    47  TYR47       0.2264
     14  O         34.5390   32.2370   -5.8060 O.2    47  TYR47      -0.2867
     15  CB        34.0540   32.3560   -3.1930 C.3    47  TYR47       0.0534
     16  CG        33.3960   33.7260   -3.2360 C.ar   47  TYR47      -0.0201
     17  CD1       32.0060   33.7650   -2.9260 C.ar   47  TYR47      -0.0009
     18  CD2       34.0390   34.8900   -3.6410 C.ar   47  TYR47      -0.0009
     19  CE1       31.2770   34.9500   -2.9660 C.ar   47  TYR47       0.0417
     20  CE2       33.3350   36.1020   -3.6420 C.ar   47  TYR47       0.0417
     21  CZ        31.9680   36.1120   -3.3120 C.ar   47  TYR47       0.1957
     22  OH        31.2870   37.2950   -3.3760 O.3    47  TYR47      -0.2866
     23  N         35.4240   34.5210   -6.8660 N.3    50  TRP50      -0.1241
     24  CA        36.9270   34.5520   -6.8040 C.3    50  TRP50       0.1605
     25  C         37.3030   33.2680   -7.4970 C.2    50  TRP50       0.2264
     26  O         38.4390   32.9020   -7.3650 O.2    50  TRP50      -0.2867
     27  CB        37.5160   34.5130   -5.4180 C.3    50  TRP50       0.0550
     28  CG        37.0640   35.7760   -4.7400 C.ar   50  TRP50       0.0003
     29  CD1       36.5560   36.9060   -5.3370 C.ar   50  TRP50       0.0946
     30  CD2       37.0600   35.9730   -3.3300 C.ar   50  TRP50       0.0152
     31  NE1       36.2100   37.8220   -4.3390 N.ar   50  TRP50      -0.2442
     32  CE2       36.5380   37.2770   -3.1170 C.ar   50  TRP50       0.0810
     33  CE3       37.5060   35.2070   -2.2730 C.ar   50  TRP50       0.0012
     34  CZ2       36.4910   37.8410   -1.8450 C.ar   50  TRP50       0.0191
     35  CZ3       37.4970   35.7690   -1.0160 C.ar   50  TRP50       0.0001
     36  CH2       36.9820   37.0530   -0.8030 C.ar   50  TRP50       0.0015
     37  N         26.1170   36.0180    1.3390 N.3    96  LEU96      -0.1301
     38  CA        26.6190   34.7830    1.8510 C.3    96  LEU96       0.1247
     39  C         25.6030   34.1890    2.8260 C.3    96  LEU96       0.2009
     40  O         26.0550   33.9590    3.9520 O.3    96  LEU96      -0.2188
     41  CB        28.0510   34.7640    2.4150 C.3    96  LEU96       0.0217
     42  CG        29.0910   35.5470    1.6200 C.3    96  LEU96       0.0015
     43  CD1       30.3310   35.9090    2.4180 C.3    96  LEU96       0.0000
     44  CD2       29.4260   34.7510    0.3770 C.3    96  LEU96       0.0000
     45  N         23.7290   45.9210    2.8890 N.3   179  ILE179     -0.1245
     46  CA        23.6010   44.5000    2.5980 C.3   179  ILE179      0.1561
     47  C         22.3750   43.9350    3.3120 C.2   179  ILE179      0.2260
     48  O         22.0980   44.2660    4.4670 O.2   179  ILE179     -0.2867
     49  CB        24.8580   43.6180    2.9460 C.3   179  ILE179      0.0252
     50  CG1       26.0670   44.0120    2.0240 C.3   179  ILE179      0.0019
     51  CG2       24.5400   42.0640    2.7840 C.3   179  ILE179      0.0019
     52  CD1       25.7970   45.3940    1.2880 C.3   179  ILE179      0.0001
     53  N         38.7770   43.7300   15.0690 N.3   199  ASP199     -0.1225
     54  CA        37.7940   43.1410   14.1360 C.3   199  ASP199      0.1805
     55  C         38.5640   41.9220   13.5920 C.2   199  ASP199      0.2598
     56  O         39.7570   41.8410   13.9000 O.2   199  ASP199     -0.2718
     57  CB        37.4950   44.1550   12.9950 C.3   199  ASP199      0.1424
     58  CG        36.2750   43.8080   12.1540 C.2   199  ASP199      0.3668
     59  OD1       36.0800   44.3800   11.0330 O.co2 199  ASP199     -0.2456
     60  OD2       35.4830   42.9290   12.6160 O.co2 199  ASP199     -0.2456
     61  N         37.9010   41.0860   12.8440 N.am  200  ALA200     -0.1966
     62  CA        38.6060   39.9830   12.1480 C.3   200  ALA200      0.1728
     63  C         38.8910   40.6300   10.7760 C.2   200  ALA200      0.2616
     64  O         38.6000   41.8120   10.5560 O.2   200  ALA200     -0.2715
     65  CB        37.7550   38.7650   12.0500 C.3   200  ALA200      0.0334
     66  N         39.5190   39.8390    9.9260 N.am  201  CYS201     -0.1954
     67  CA        39.7930   40.4530    8.5830 C.3   201  CYS201      0.1843
     68  C         39.9690   39.3770    7.5350 C.2   201  CYS201      0.2625
     69  O         39.8920   38.1620    7.7420 O.2   201  CYS201     -0.2714
     70  CB        40.8610   41.4600    8.7290 C.3   201  CYS201      0.0997
     71  SG        41.2830   42.5770    7.4060 S.3   201  CYS201     -0.0797
     72  N         40.2460   39.9170    6.3570 N.am  202  GLU202     -0.1963
     73  CA        40.4560   39.0520    5.1500 C.3   202  GLU202      0.1733
     74  C         41.4190   38.0050    5.6300 C.2   202  GLU202      0.2616
     75  O         42.3440   38.2750    6.4440 O.2   202  GLU202     -0.2715
     76  CB        40.6900   39.9850    3.9980 C.3   202  GLU202      0.0429
     77  CG        40.2970   41.4940    4.2040 C.3   202  GLU202      0.1163
     78  CD        41.2900   42.5280    3.7030 C.2   202  GLU202      0.3649
     79  OE1       41.9610   42.4950    2.6400 O.co2 202  GLU202     -0.2457
     80  OE2       41.4620   43.5620    4.3710 O.co2 202  GLU202     -0.2457
     81  N         41.0540   36.7440    5.5240 N.am  203  GLY203     -0.1955
     82  CA        41.8010   35.5720    5.9390 C.3   203  GLY203      0.1869
     83  C         41.4460   34.9170    7.2510 C.2   203  GLY203      0.2309
     84  O         41.8840   33.7920    7.5570 O.2   203  GLY203     -0.2863
     85  N         38.1210   34.5230    8.1330 N.3   205  SER205     -0.1217
     86  CA        36.8900   33.7860    7.8210 C.3   205  SER205      0.1889
     87  C         37.0300   32.2940    8.0140 C.2   205  SER205      0.2288
     88  O         38.1310   31.7460    7.8310 O.2   205  SER205     -0.2866
     89  CB        36.3760   34.1980    6.4300 C.3   205  SER205      0.2089
     90  OG        37.3400   34.9370    5.6870 O.3   205  SER205     -0.2183
     91  N         33.6450   33.0380   11.0470 N.3   225  VAL225     -0.1231
     92  CA        33.9860   34.3530   10.4450 C.3   225  VAL225      0.1692
     93  C         33.4460   34.3350    9.0010 C.2   225  VAL225      0.2593
     94  O         33.7670   33.4140    8.1990 O.2   225  VAL225     -0.2718
     95  CB        35.4520   34.7680   10.6110 C.3   225  VAL225      0.0266
     96  CG1       35.7970   36.1100    9.9800 C.3   225  VAL225      0.0020
     97  CG2       35.8080   34.7400   12.1090 C.3   225  VAL225      0.0020
     98  N         32.6160   35.3530    8.7750 N.am  226  SER226     -0.1938
     99  CA        31.9860   35.4900    7.4880 C.3   226  SER226      0.2055
    100  C         32.5290   36.5470    6.5220 C.2   226  SER226      0.2643
    101  O         33.2340   36.1290    5.6000 O.2   226  SER226     -0.2714
    102  CB        30.4580   35.6040    7.4850 C.3   226  SER226      0.2130
    103  OG        29.9170   34.3090    7.1870 O.3   226  SER226     -0.2179
    104  N         32.0220   37.7360    6.7290 N.am  227  TRP227     -0.1959
    105  CA        32.2340   38.8630    5.8700 C.3   227  TRP227      0.1771
    106  C         32.1100   40.2030    6.5810 C.2   227  TRP227      0.2620
    107  O         31.7480   40.3100    7.7250 O.2   227  TRP227     -0.2715
    108  CB        31.0890   38.7810    4.7900 C.3   227  TRP227      0.0590
    109  CG        29.6520   38.8850    5.2270 C.ar  227  TRP227      0.0006
    110  CD1       28.7920   37.8740    5.6150 C.ar  227  TRP227      0.0946
    111  CD2       28.9030   40.1420    5.3690 C.ar  227  TRP227      0.0152
    112  NE1       27.6010   38.4370    5.9860 N.ar  227  TRP227     -0.2442
    113  CE2       27.6210   39.7920    5.8190 C.ar  227  TRP227      0.0810
    114  CE3       29.2100   41.4530    5.1230 C.ar  227  TRP227      0.0012
    115  CZ2       26.6230   40.7560    6.0010 C.ar  227  TRP227      0.0191
    116  CZ3       28.2400   42.4140    5.2510 C.ar  227  TRP227      0.0001
    117  CH2       26.9750   42.0890    5.6860 C.ar  227  TRP227      0.0015
    118  N         32.2230   41.2340    5.7230 N.am  228  GLY228     -0.1940
    119  CA        32.1750   42.6310    6.1330 C.3   228  GLY228      0.2014
    120  C         32.5400   43.5210    4.9540 C.2   228  GLY228      0.2639
    121  O         32.5480   43.0920    3.7860 O.2   228  GLY228     -0.2714
    122  N         32.7180   44.7600    5.2400 N.am  229  GLU229     -0.1963
    123  CA        33.0560   45.8970    4.4120 C.3   229  GLU229      0.1733
    124  C         34.1190   46.7110    5.2090 C.2   229  GLU229      0.2617
    125  O         33.9250   47.4500    6.1610 O.2   229  GLU229     -0.2715
    126  CB        31.8540   46.7990    4.0920 C.3   229  GLU229      0.0429
    127  CG        30.4740   46.0350    3.9050 C.3   229  GLU229      0.1163
    128  CD        29.2560   46.9400    3.9470 C.2   229  GLU229      0.3649
    129  OE1       28.8580   47.6470    3.0400 O.co2 229  GLU229     -0.2457
    130  OE2       28.7580   46.9520    5.0970 O.co2 229  GLU229     -0.2457
    131  N         35.3510   46.4580    4.7040 N.am  230  GLY230     -0.1940
    132  CA        36.5930   47.0790    5.2790 C.3   230  GLY230      0.2014
    133  C         36.8770   46.1200    6.4540 C.2   230  GLY230      0.2639
    134  O         36.1920   45.0720    6.5090 O.2   230  GLY230     -0.2714
    135  N         37.8610   46.4650    7.2250 N.am  231  CYS231     -0.1967
    136  CA        38.2970   45.7810    8.4430 C.3   231  CYS231      0.1712
    137  C         38.5840   46.9220    9.4520 C.2   231  CYS231      0.2296
    138  O         39.3450   47.8520    9.1610 O.2   231  CYS231     -0.2864
    139  CB        39.4640   44.8420    8.4290 C.3   231  CYS231      0.0983
    140  SG        39.5580   43.6690    7.0840 S.3   231  CYS231     -0.0798
    141  N         30.6080   46.7300   11.3940 N.3   237  TYR237     -0.1227
    142  CA        30.6740   45.5860   12.2810 C.3   237  TYR237      0.1736
    143  C         30.9840   44.3010   11.4840 C.2   237  TYR237      0.2596
    144  O         30.6730   44.1990   10.2600 O.2   237  TYR237     -0.2718
    145  CB        29.3650   45.2840   13.0810 C.3   237  TYR237      0.0548
    146  CG        29.0210   46.4660   13.9590 C.ar  237  TYR237     -0.0200
    147  CD1       28.2440   47.4700   13.3700 C.ar  237  TYR237     -0.0009
    148  CD2       29.4460   46.6080   15.2830 C.ar  237  TYR237     -0.0009
    149  CE1       27.9570   48.6550   14.0540 C.ar  237  TYR237      0.0417
    150  CE2       29.1660   47.7760   15.9850 C.ar  237  TYR237      0.0417
    151  CZ        28.4080   48.7810   15.3610 C.ar  237  TYR237      0.1957
    152  OH        28.1010   49.9430   16.0370 O.3   237  TYR237     -0.2866
    153  N         31.5420   43.3130   12.1970 N.am  238  GLY238     -0.1942
    154  CA        31.8840   42.0420   11.5180 C.3   238  GLY238      0.2014
    155  C         30.6250   41.1880   11.5160 C.2   238  GLY238      0.2639
    156  O         29.8140   41.4370   12.4030 O.2   238  GLY238     -0.2714
    157  N         30.5620   40.3160   10.5200 N.am  239  PHE239     -0.1959
    158  CA        29.3750   39.4610   10.3600 C.3   239  PHE239      0.1771
    159  C         29.7520   37.9860   10.5000 C.2   239  PHE239      0.2619
    160  O         30.6040   37.4330    9.7370 O.2   239  PHE239     -0.2715
    161  CB        28.4960   39.7620    9.1440 C.3   239  PHE239      0.0574
    162  CG        27.6010   40.9530    9.3850 C.ar  239  PHE239     -0.0200
    163  CD1       28.0360   42.2450    9.0970 C.ar  239  PHE239     -0.0042
    164  CD2       26.3960   40.7820   10.1000 C.ar  239  PHE239     -0.0042
    165  CE1       27.2630   43.3630    9.4280 C.ar  239  PHE239     -0.0003
    166  CE2       25.6120   41.9030   10.3760 C.ar  239  PHE239     -0.0003
    167  CZ        26.0090   43.1630    9.9560 C.ar  239  PHE239     -0.0000
    168  N         29.0690   37.4110   11.4940 N.am  240  TYR240     -0.1974
    169  CA        29.2880   36.0110   11.8260 C.3   240  TYR240      0.1639
    170  C         28.1750   35.1010   11.3770 C.2   240  TYR240      0.2290
    171  O         27.0060   35.5470   11.4120 O.2   240  TYR240     -0.2864
    172  CB        29.4010   36.0890   13.3490 C.3   240  TYR240      0.0560
    173  CG        30.6330   36.9060   13.6460 C.ar  240  TYR240     -0.0198
    174  CD1       30.5410   38.2420   14.0020 C.ar  240  TYR240     -0.0009
    175  CD2       31.9100   36.3330   13.5430 C.ar  240  TYR240     -0.0009
    176  CE1       31.6850   39.0190   14.2450 C.ar  240  TYR240      0.0417
    177  CE2       33.0620   37.0780   13.7520 C.ar  240  TYR240      0.0417
    178  CZ        32.9420   38.3970   14.1340 C.ar  240  TYR240      0.1957
    179  OH        34.0950   39.1350   14.3910 O.3   240  TYR240     -0.2866
@<TRIPOS>BOND
     1    25    26    2
     2    25    24    1
     3    23    24    1
     4    24    27    1
     5    14    13    2
     6    13    12    1
     7    27    28    1
     8    29    28   ar
     9    29    31   ar
    10    28    30   ar
    11    31    32   ar
    12    12    11    1
    13    12    15    1
    14    20    18   ar
    15    20    21   ar
    16    18    16   ar
    17    22    21    1
    18    30    32   ar
    19    30    33   ar
    20    21    19   ar
    21    16    15    1
    22    16    17   ar
    23    32    34   ar
    24    19    17   ar
    25    33    35   ar
    26    34    36   ar
    27    35    36   ar
    28     4     3    2
    29    44    42    1
    30     3     2    1
    31     2     5    1
    32     2     1    1
    33    52    50    1
    34     5     6    1
    35    37    38    1
    36    42    41    1
    37    42    43    1
    38     8     6   ar
    39     8    10   ar
    40    38    41    1
    41    38    39    1
    42    50    49    1
    43     6     7   ar
    44    46    45    1
    45    46    49    1
    46    46    47    1
    47    79    78   ar
    48    51    49    1
    49    10     9   ar
    50    39    40    1
    51   129   128   ar
    52    47    48    2
    53     7     9   ar
    54    78    77    1
    55    78    80   ar
    56   121   120    2
    57   127   128    1
    58   127   126    1
    59   128   130   ar
    60    76    77    1
    61    76    73    1
    62   126   123    1
    63   123   124    1
    64   123   122    1
    65   131   124   am
    66   131   132    1
    67   108   109    1
    68   108   105    1
    69   120   122   am
    70   120   119    1
    71   114   116   ar
    72   114   111   ar
    73    73    74    1
    74    73    72    1
    75   124   125    2
    76   109   111   ar
    77   109   110   ar
    78   116   117   ar
    79   132   133    1
    80   111   113   ar
    81    81    74   am
    82    81    82    1
    83   101   100    2
    84   110   112   ar
    85    74    75    2
    86   117   115   ar
    87    90    89    1
    88   118   119    1
    89   118   106   am
    90   113   112   ar
    91   113   115   ar
    92   105   106    1
    93   105   104    1
    94    82    83    1
    95    72    68   am
    96    89    86    1
    97   133   134    2
    98   133   135   am
    99   100   104   am
   100   100    99    1
   101   106   107    2
   102   140    71    1
   103   140   139    1
   104   103   102    1
   105   135   136    1
   106    83    84    2
   107    71    70    1
   108   102    99    1
   109    99    98    1
   110    68    69    2
   111    68    67    1
   112    86    87    1
   113    86    85    1
   114    88    87    2
   115    94    93    2
   116   139   136    1
   117   136   137    1
   118    67    70    1
   119    67    66    1
   120    98    93   am
   121    93    92    1
   122   163   162   ar
   123   163   165   ar
   124   161   162    1
   125   161   158    1
   126   138   137    2
   127   162   164   ar
   128   165   167   ar
   129   160   159    2
   130    66    63   am
   131   167   166   ar
   132    96    95    1
   133   164   166   ar
   134   144   143    2
   135   158   159    1
   136   158   157    1
   137    92    95    1
   138    92    91    1
   139   159   168   am
   140   157   155   am
   141    64    63    2
   142    95    97    1
   143    63    62    1
   144    59    58   ar
   145   170   171    2
   146   170   169    1
   147   141   142    1
   148   143   153   am
   149   143   142    1
   150   168   169    1
   151   155   154    1
   152   155   156    2
   153   154   153    1
   154   169   172    1
   155    65    62    1
   156    62    61    1
   157    58    60   ar
   158    58    57    1
   159   142   145    1
   160    61    55   am
   161    57    54    1
   162   145   146    1
   163   172   173    1
   164   147   146   ar
   165   147   149   ar
   166   175   173   ar
   167   175   177   ar
   168    55    56    2
   169    55    54    1
   170   173   174   ar
   171   177   178   ar
   172   146   148   ar
   173   174   176   ar
   174   149   151   ar
   175   178   176   ar
   176   178   179    1
   177    54    53    1
   178   148   150   ar
   179   151   150   ar
   180   151   152    1
