@<TRIPOS>MOLECULE
tmp/1ny3A00.pdb
 165 153 0 0 0
SMALL
GASTEIGER

@<TRIPOS>ATOM
      1  N        239.2760   77.8990  178.8470 N.3    25  LEU25      -0.1231
      2  CA       239.2590   78.8160  179.9770 C.3    25  LEU25       0.1693
      3  C        238.8650   78.0390  181.2270 C.2    25  LEU25       0.2593
      4  O        239.1710   78.4580  182.3430 O.2    25  LEU25      -0.2718
      5  CB       238.2680   79.9560  179.7180 C.3    25  LEU25       0.0284
      6  CG       238.6600   81.0150  178.6800 C.3    25  LEU25       0.0019
      7  CD1      237.4200   81.6680  178.0970 C.3    25  LEU25       0.0001
      8  CD2      239.5530   82.0490  179.3220 C.3    25  LEU25       0.0001
      9  N        238.1940   76.9030  181.0350 N.am   26  GLY26      -0.1942
     10  CA       237.7810   76.0890  182.1660 C.3    26  GLY26       0.2014
     11  C        236.7070   75.0770  181.8250 C.2    26  GLY26       0.2639
     12  O        236.1580   75.1110  180.7300 O.2    26  GLY26      -0.2714
     13  N        236.4050   74.1750  182.7570 N.am   27  LEU27      -0.1963
     14  CA       235.3810   73.1550  182.5340 C.3    27  LEU27       0.1728
     15  C        234.2250   73.2390  183.5090 C.2    27  LEU27       0.2617
     16  O        234.3180   73.8710  184.5570 O.2    27  LEU27      -0.2715
     17  CB       235.9760   71.7510  182.6210 C.3    27  LEU27       0.0311
     18  CG       236.8770   71.3050  181.4730 C.3    27  LEU27       0.0022
     19  CD1      237.2170   69.8180  181.5950 C.3    27  LEU27       0.0001
     20  CD2      236.1500   71.5680  180.1720 C.3    27  LEU27       0.0001
     21  N        233.1330   72.5770  183.1580 N.am   28  GLY28      -0.1940
     22  CA       231.9630   72.5920  184.0130 C.3    28  GLY28       0.2014
     23  C        230.7620   71.8530  183.4460 C.2    28  GLY28       0.2639
     24  O        230.8430   71.1710  182.4180 O.2    28  GLY28      -0.2714
     25  N        229.6350   72.0040  184.1360 N.am   29  ILE29      -0.1963
     26  CA       228.3760   71.3650  183.7650 C.3    29  ILE29       0.1727
     27  C        228.1030   71.2590  182.2700 C.2    29  ILE29       0.2616
     28  O        227.8900   70.1620  181.7500 O.2    29  ILE29      -0.2715
     29  CB       227.1890   72.0850  184.4390 C.3    29  ILE29       0.0290
     30  CG1      227.1450   71.7070  185.9210 C.3    29  ILE29       0.0022
     31  CG2      225.8890   71.7450  183.7240 C.3    29  ILE29       0.0023
     32  CD1      225.9680   72.2850  186.6730 C.3    29  ILE29       0.0001
     33  N        228.1060   72.3930  181.5800 N.am   30  ASN30      -0.1958
     34  CA       227.8440   72.3950  180.1480 C.3    30  ASN30       0.1819
     35  C        229.0440   72.0050  179.2960 C.2    30  ASN30       0.2621
     36  O        228.9350   71.8580  178.0790 O.2    30  ASN30      -0.2715
     37  CB       227.3030   73.7560  179.7360 C.3    30  ASN30       0.1195
     38  CG       225.8980   73.9670  180.2250 C.2    30  ASN30       0.2630
     39  OD1      224.9660   73.3150  179.7490 O.2    30  ASN30      -0.2716
     40  ND2      225.7300   74.8580  181.1990 N.am   30  ASN30      -0.0877
     41  N        230.1860   71.8200  179.9400 N.am   31  GLY31      -0.1954
     42  CA       231.3600   71.4280  179.1980 C.3    31  GLY31       0.1869
     43  C        232.4890   72.4280  179.2820 C.2    31  GLY31       0.2309
     44  O        232.6660   73.1170  180.2850 O.2    31  GLY31      -0.2863
     45  N        234.5230   75.7940  178.4700 N.3    33  VAL33      -0.1245
     46  CA       234.2670   77.1790  178.1500 C.3    33  VAL33       0.1561
     47  C        235.5120   77.6200  177.4100 C.2    33  VAL33       0.2260
     48  O        236.5450   77.8880  178.0280 O.2    33  VAL33      -0.2867
     49  CB       234.1380   78.0200  179.3860 C.3    33  VAL33       0.0252
     50  CG1      234.2670   79.4820  179.0230 C.3    33  VAL33       0.0019
     51  CG2      232.8100   77.7420  180.0290 C.3    33  VAL33       0.0019
     52  N        235.0550   84.7880  176.4310 N.3    46  ALA46      -0.1245
     53  CA       234.6920   83.4440  176.8530 C.3    46  ALA46       0.1562
     54  C        233.4800   83.0000  176.0520 C.2    46  ALA46       0.2260
     55  O        232.5690   83.7880  175.7950 O.2    46  ALA46      -0.2867
     56  CB       234.3600   83.4430  178.3020 C.3    46  ALA46       0.0290
     57  N        230.4690   80.0530  175.8560 N.3    48  LYS48      -0.1245
     58  CA       229.6500   79.0220  176.4860 C.3    48  LYS48       0.1561
     59  C        228.6240   78.4400  175.5080 C.2    48  LYS48       0.2260
     60  O        227.9450   79.1480  174.7740 O.2    48  LYS48      -0.2867
     61  CB       228.9360   79.6450  177.6890 C.3    48  LYS48       0.0271
     62  CG       228.6400   78.6170  178.7850 C.3    48  LYS48       0.0035
     63  CD       227.8960   79.2310  179.9740 C.3    48  LYS48       0.0206
     64  CE       227.8710   78.3030  181.1940 C.3    48  LYS48       0.1093
     65  NZ       228.9860   78.6260  182.0830 N.3    48  LYS48      -0.1314
     66  N        229.2750   89.1880  185.4270 N.3    73  VAL73      -0.1245
     67  CA       229.9790   89.0280  184.1600 C.3    73  VAL73       0.1561
     68  C        229.0080   89.4160  183.0440 C.2    73  VAL73       0.2260
     69  O        227.8440   89.0080  183.0710 O.2    73  VAL73      -0.2867
     70  CB       230.4690   87.5830  183.9750 C.3    73  VAL73       0.0252
     71  CG1      229.2880   86.6420  183.8120 C.3    73  VAL73       0.0019
     72  CG2      231.3890   87.5030  182.7760 C.3    73  VAL73       0.0019
     73  N        230.8930   85.8890  176.4170 N.3    93  MET93      -0.1230
     74  CA       231.0260   86.5980  177.6850 C.3    93  MET93       0.1702
     75  C        232.3390   87.3810  177.7690 C.2    93  MET93       0.2592
     76  O        233.3710   86.9750  177.2460 O.2    93  MET93      -0.2718
     77  CB       231.0440   85.5480  178.7960 C.3    93  MET93       0.0401
     78  CG       229.7070   84.8360  178.9650 C.3    93  MET93       0.0596
     79  SD       229.7790   83.5700  180.2360 S.3    93  MET93      -0.1393
     80  CE       228.1090   82.9370  180.0290 C.3    93  MET93       0.0692
     81  N        232.2810   88.5550  178.4270 N.am   94  GLU94      -0.1966
     82  CA       233.5500   89.1540  178.7980 C.3    94  GLU94       0.1733
     83  C        234.3810   88.0990  179.5110 C.2    94  GLU94       0.2616
     84  O        233.8760   87.2850  180.2720 O.2    94  GLU94      -0.2715
     85  CB       233.2910   90.3460  179.7320 C.3    94  GLU94       0.0429
     86  CG       233.4440   89.9990  181.2160 C.3    94  GLU94       0.1163
     87  CD       233.1400   91.2310  182.0590 C.2    94  GLU94       0.3649
     88  OE1      231.9720   91.5010  182.3060 O.co2  94  GLU94      -0.2457
     89  OE2      234.0790   91.9120  182.4590 O.co2  94  GLU94      -0.2457
     90  N        235.6640   88.1420  179.1720 N.am   95  CYS95      -0.1954
     91  CA       236.6250   87.1670  179.6660 C.3    95  CYS95       0.1843
     92  C        237.3220   87.5290  180.9680 C.2    95  CYS95       0.2625
     93  O        238.2270   88.3490  180.9900 O.2    95  CYS95      -0.2714
     94  CB       237.6760   86.9030  178.5870 C.3    95  CYS95       0.0997
     95  SG       238.9960   85.8110  179.1170 S.3    95  CYS95      -0.0797
     96  N        236.9120   86.8950  182.0550 N.am   96  LEU96      -0.1977
     97  CA       237.5240   87.1590  183.3480 C.3    96  LEU96       0.1596
     98  C        238.7850   86.3040  183.5090 C.2    96  LEU96       0.2287
     99  O        238.7360   85.0810  183.3600 O.2    96  LEU96      -0.2864
    100  CB       236.5230   86.8470  184.4620 C.3    96  LEU96       0.0297
    101  CG       235.2030   87.6100  184.3500 C.3    96  LEU96       0.0022
    102  CD1      234.2140   87.1000  185.3820 C.3    96  LEU96       0.0001
    103  CD2      235.4690   89.0860  184.5350 C.3    96  LEU96       0.0001
    104  N        239.7590   82.6030  190.2350 N.3   100  GLU100     -0.1245
    105  CA       238.7460   82.4640  191.2680 C.3   100  GLU100      0.1567
    106  C        239.0500   83.2490  192.5390 C.2   100  GLU100      0.2260
    107  O        240.2060   83.4460  192.9080 O.2   100  GLU100     -0.2867
    108  CB       238.5430   80.9930  191.6050 C.3   100  GLU100      0.0388
    109  CG       237.8610   80.1990  190.5090 C.3   100  GLU100      0.1160
    110  CD       237.7250   78.7320  190.8760 C.2   100  GLU100      0.3649
    111  OE1      237.1180   77.9670  190.0920 O.co2 100  GLU100     -0.2457
    112  OE2      238.2360   78.3460  191.9550 O.co2 100  GLU100     -0.2457
    113  N        228.6440   80.4070  194.8520 N.3   137  LYS137     -0.1245
    114  CA       229.7660   79.7310  195.4820 C.3   137  LYS137      0.1561
    115  C        231.0330   80.3920  194.9850 C.2   137  LYS137      0.2260
    116  O        231.0490   80.9750  193.9050 O.2   137  LYS137     -0.2867
    117  CB       229.7700   78.2460  195.1230 C.3   137  LYS137      0.0271
    118  CG       229.7090   77.9620  193.6390 C.3   137  LYS137      0.0035
    119  CD       228.9390   76.6790  193.3670 C.3   137  LYS137      0.0206
    120  CE       228.6690   76.5090  191.8690 C.3   137  LYS137      0.1093
    121  NZ       227.7460   75.3710  191.5790 N.3   137  LYS137     -0.1314
    122  N        233.7430   79.4470  193.5530 N.3   139  GLU139     -0.1231
    123  CA       234.0190   79.0800  192.1780 C.3   139  GLU139      0.1699
    124  C        233.4410   80.0920  191.1590 C.2   139  GLU139      0.2592
    125  O        234.1210   80.4870  190.2130 O.2   139  GLU139     -0.2718
    126  CB       233.4320   77.6890  191.9200 C.3   139  GLU139      0.0402
    127  CG       233.7840   76.6090  192.9780 C.3   139  GLU139      0.1161
    128  CD       233.5270   77.0300  194.4440 C.2   139  GLU139      0.3649
    129  OE1      232.4880   77.6740  194.7270 O.co2 139  GLU139     -0.2457
    130  OE2      234.3630   76.7000  195.3210 O.co2 139  GLU139     -0.2457
    131  N        232.1960   80.5270  191.3500 N.am  140  ASN140     -0.1974
    132  CA       231.5840   81.4570  190.4050 C.3   140  ASN140      0.1688
    133  C        231.9910   82.9050  190.5690 C.2   140  ASN140      0.2292
    134  O        231.3600   83.7960  189.9980 O.2   140  ASN140     -0.2864
    135  CB       230.0680   81.3640  190.4710 C.3   140  ASN140      0.1181
    136  CG       229.5660   79.9750  190.1890 C.2   140  ASN140      0.2629
    137  OD1      228.7970   79.4130  190.9590 O.2   140  ASN140     -0.2716
    138  ND2      230.0050   79.4060  189.0770 N.am  140  ASN140     -0.0877
    139  N        235.0220   85.1730  189.7670 N.3   142  LEU142     -0.1245
    140  CA       236.2990   85.3340  189.0770 C.3   142  LEU142      0.1561
    141  C        236.7650   86.7790  189.0080 C.2   142  LEU142      0.2260
    142  O        235.9570   87.7000  189.0010 O.2   142  LEU142     -0.2867
    143  CB       236.1650   84.8010  187.6570 C.3   142  LEU142      0.0270
    144  CG       235.3460   83.5170  187.5730 C.3   142  LEU142      0.0019
    145  CD1      235.2420   83.0610  186.1370 C.3   142  LEU142      0.0001
    146  CD2      235.9850   82.4490  188.4450 C.3   142  LEU142      0.0001
    147  N        229.3740   84.9260  188.3000 N.3   155  THR155     -0.1203
    148  CA       228.9760   84.3630  187.0150 C.3   155  THR155      0.1994
    149  C        228.1750   83.0710  187.1880 C.2   155  THR155      0.2617
    150  O        227.9880   82.5560  188.2830 O.2   155  THR155     -0.2717
    151  CB       230.2410   84.0830  186.2030 C.3   155  THR155      0.1784
    152  OG1      230.9680   83.0190  186.8210 O.3   155  THR155     -0.2211
    153  CG2      231.1290   85.3310  186.1650 C.3   155  THR155      0.0376
    154  N        227.6570   82.5690  186.0510 N.am  156  ASP156     -0.1973
    155  CA       226.9090   81.3180  186.0860 C.3   156  ASP156      0.1709
    156  C        225.4530   81.5340  186.5040 C.2   156  ASP156      0.2293
    157  O        225.1430   81.9300  187.6200 O.2   156  ASP156     -0.2864
    158  CB       227.5990   80.3720  187.0690 C.3   156  ASP156      0.1436
    159  CG       227.1530   78.9440  186.7870 C.2   156  ASP156      0.3671
    160  OD1      226.3020   78.7730  185.9130 O.co2 156  ASP156     -0.2456
    161  OD2      227.6530   78.0290  187.4360 O.co2 156  ASP156     -0.2456
    162  N        223.1390   79.0320  185.5560 N.3   158  GLY158     -0.1225
    163  CA       222.5470   77.7270  185.3130 C.3   158  GLY158      0.1811
    164  C        221.4090   77.4120  186.2610 C.2   158  GLY158      0.2280
    165  O        220.6080   76.5250  185.9880 O.2   158  GLY158     -0.2866
@<TRIPOS>BOND
     1    60    59    2
     2    59    58    1
     3    55    54    2
     4    57    58    1
     5    54    53    1
     6    73    74    1
     7    52    53    1
     8    58    61    1
     9    53    56    1
    10    76    75    2
    11    47    48    2
    12    47    46    1
    13    74    75    1
    14    74    77    1
    15    61    62    1
    16    75    81   am
    17    36    35    2
    18     7     6    1
    19    46    45    1
    20    46    49    1
    21    81    82    1
    22    94    95    1
    23    94    91    1
    24     6     8    1
    25     6     5    1
    26    62    63    1
    27    77    78    1
    28    82    83    1
    29    82    85    1
    30     1     2    1
    31    78    79    1
    32    50    49    1
    33    90    83   am
    34    90    91    1
    35    42    43    1
    36    42    41    1
    37    43    44    2
    38    35    41   am
    39    35    34    1
    40    49    51    1
    41    83    84    2
    42    91    92    1
    43     5     2    1
    44    85    86    1
    45    37    34    1
    46    37    38    1
    47    39    38    2
    48    63    64    1
    49     2     3    1
    50    80    79    1
    51    34    33    1
    52    20    18    1
    53    38    40   am
    54    12    11    2
    55    92    93    2
    56    92    96   am
    57     9     3   am
    58     9    10    1
    59    64    65    1
    60    86    87    1
    61     3     4    2
    62    18    19    1
    63    18    17    1
    64    33    27   am
    65    28    27    2
    66    11    10    1
    67    11    13   am
    68    96    97    1
    69    87    88   ar
    70    87    89   ar
    71    27    26    1
    72    24    23    2
    73    14    17    1
    74    14    13    1
    75    14    15    1
    76    72    70    1
    77    68    69    2
    78    68    67    1
    79    21    15   am
    80    21    22    1
    81    97    98    1
    82    97   100    1
    83    99    98    2
    84    23    22    1
    85    23    25   am
    86    15    16    2
    87    31    29    1
    88    26    25    1
    89    26    29    1
    90    71    70    1
    91    70    67    1
    92    67    66    1
    93   101   100    1
    94   101   103    1
    95   101   102    1
    96    29    30    1
    97   163   162    1
    98   163   164    1
    99   160   159   ar
   100    30    32    1
   101   165   164    2
   102   154   155    1
   103   154   149   am
   104   155   156    1
   105   155   158    1
   106   145   144    1
   107   153   151    1
   108   151   152    1
   109   151   148    1
   110   156   157    2
   111   159   158    1
   112   159   161   ar
   113   148   149    1
   114   148   147    1
   115   149   150    2
   116   144   143    1
   117   144   146    1
   118   143   140    1
   119   142   141    2
   120   141   140    1
   121   140   139    1
   122   138   136   am
   123   134   133    2
   124   111   110   ar
   125   136   135    1
   126   136   137    2
   127   125   124    2
   128   104   105    1
   129   132   135    1
   130   132   133    1
   131   132   131    1
   132   109   110    1
   133   109   108    1
   134   110   112   ar
   135   124   131   am
   136   124   123    1
   137   105   108    1
   138   105   106    1
   139   121   120    1
   140   120   119    1
   141   126   123    1
   142   126   127    1
   143   123   122    1
   144   106   107    2
   145   127   128    1
   146   119   118    1
   147   118   117    1
   148   116   115    2
   149   128   129   ar
   150   128   130   ar
   151   113   114    1
   152   115   114    1
   153   117   114    1
