@<TRIPOS>MOLECULE
tmp/1ny5B00.pdb
 177 172 0 0 0
SMALL
GASTEIGER

@<TRIPOS>ATOM
      1  N        -29.3680  -29.7020   -7.6280 N.3   137  GLU137     -0.1231
      2  CA       -28.4530  -28.6250   -7.3010 C.3   137  GLU137      0.1699
      3  C        -27.5260  -29.0310   -6.1690 C.2   137  GLU137      0.2592
      4  O        -27.8150  -29.9600   -5.4160 O.2   137  GLU137     -0.2718
      5  CB       -29.2370  -27.3750   -6.8980 C.3   137  GLU137      0.0402
      6  CG       -29.4410  -26.3890   -8.0280 C.3   137  GLU137      0.1161
      7  CD       -28.1340  -25.7450   -8.4600 C.2   137  GLU137      0.3649
      8  OE1      -27.5340  -25.0220   -7.6350 O.co2 137  GLU137     -0.2457
      9  OE2      -27.7050  -25.9620   -9.6170 O.co2 137  GLU137     -0.2457
     10  N        -26.4060  -28.3290   -6.0650 N.am  138  GLU138     -0.1966
     11  CA       -25.4290  -28.5840   -5.0180 C.3   138  GLU138      0.1733
     12  C        -25.3900  -27.3430   -4.1340 C.2   138  GLU138      0.2616
     13  O        -25.3150  -26.2210   -4.6260 O.2   138  GLU138     -0.2715
     14  CB       -24.0660  -28.8930   -5.6450 C.3   138  GLU138      0.0429
     15  CG       -24.0100  -30.2970   -6.2480 C.3   138  GLU138      0.1163
     16  CD       -22.7530  -30.5480   -7.0560 C.2   138  GLU138      0.3649
     17  OE1      -21.6840  -30.0390   -6.6610 O.co2 138  GLU138     -0.2457
     18  OE2      -22.8300  -31.2670   -8.0800 O.co2 138  GLU138     -0.2457
     19  N        -25.4400  -27.5580   -2.8270 N.am  139  TYR139     -0.1960
     20  CA       -25.4900  -26.4620   -1.8780 C.3   139  TYR139      0.1771
     21  C        -24.1860  -25.9870   -1.2380 C.2   139  TYR139      0.2619
     22  O        -23.1610  -26.6680   -1.2920 O.2   139  TYR139     -0.2715
     23  CB       -26.5400  -26.8120   -0.8250 C.3   139  TYR139      0.0574
     24  CG       -27.8570  -27.1810   -1.4850 C.ar  139  TYR139     -0.0198
     25  CD1      -28.4250  -28.4490   -1.3260 C.ar  139  TYR139     -0.0009
     26  CD2      -28.5010  -26.2760   -2.3310 C.ar  139  TYR139     -0.0009
     27  CE1      -29.6050  -28.8030   -2.0040 C.ar  139  TYR139      0.0417
     28  CE2      -29.6700  -26.6170   -3.0080 C.ar  139  TYR139      0.0417
     29  CZ       -30.2170  -27.8770   -2.8420 C.ar  139  TYR139      0.1957
     30  OH       -31.3720  -28.1850   -3.5240 O.3   139  TYR139     -0.2866
     31  N        -24.2520  -24.8020   -0.6320 N.am  140  VAL140     -0.1963
     32  CA       -23.0990  -24.1610   -0.0110 C.3   140  VAL140      0.1727
     33  C        -23.2770  -23.7870    1.4570 C.2   140  VAL140      0.2616
     34  O        -24.1630  -23.0080    1.8030 O.2   140  VAL140     -0.2715
     35  CB       -22.7380  -22.8710   -0.7780 C.3   140  VAL140      0.0290
     36  CG1      -21.6250  -22.1330   -0.0690 C.3   140  VAL140      0.0023
     37  CG2      -22.3380  -23.2090   -2.2040 C.3   140  VAL140      0.0023
     38  N        -22.4150  -24.3320    2.3120 N.am  141  PHE141     -0.1974
     39  CA       -22.4440  -24.0490    3.7490 C.3   141  PHE141      0.1639
     40  C        -21.0300  -23.7160    4.2380 C.2   141  PHE141      0.2290
     41  O        -20.4070  -24.5100    4.9440 O.2   141  PHE141     -0.2864
     42  CB       -22.9710  -25.2540    4.5350 C.3   141  PHE141      0.0560
     43  CG       -24.3720  -25.6450    4.1860 C.ar  141  PHE141     -0.0200
     44  CD1      -24.6560  -26.2610    2.9740 C.ar  141  PHE141     -0.0042
     45  CD2      -25.4130  -25.3970    5.0720 C.ar  141  PHE141     -0.0042
     46  CE1      -25.9550  -26.6250    2.6490 C.ar  141  PHE141     -0.0003
     47  CE2      -26.7190  -25.7550    4.7590 C.ar  141  PHE141     -0.0003
     48  CZ       -26.9900  -26.3710    3.5440 C.ar  141  PHE141     -0.0000
     49  N        -23.8790  -21.7200    9.5870 N.3   146  MET146     -0.1245
     50  CA       -24.4220  -22.7710    8.7330 C.3   146  MET146      0.1570
     51  C        -23.6240  -24.0650    8.8420 C.2   146  MET146      0.2261
     52  O        -24.1900  -25.1570    8.8080 O.2   146  MET146     -0.2867
     53  CB       -24.4420  -22.3150    7.2680 C.3   146  MET146      0.0387
     54  CG       -25.2790  -21.0640    6.9830 C.3   146  MET146      0.0595
     55  SD       -27.0580  -21.2020    7.3490 S.3   146  MET146     -0.1393
     56  CE       -27.5030  -22.7940    6.5190 C.3   146  MET146      0.0692
     57  N        -37.6530  -15.2640    4.6040 N.3   169  SER169     -0.1202
     58  CA       -37.8530  -15.9100    3.3170 C.3   169  SER169      0.2020
     59  C        -36.6270  -15.7300    2.4220 C.2   169  SER169      0.2619
     60  O        -35.9310  -14.7090    2.4840 O.2   169  SER169     -0.2717
     61  CB       -39.1140  -15.3610    2.6400 C.3   169  SER169      0.2103
     62  OG       -39.2430  -13.9730    2.8550 O.3   169  SER169     -0.2182
     63  N        -36.3630  -16.7450    1.6050 N.am  170  GLY170     -0.1942
     64  CA       -35.2250  -16.7050    0.7070 C.3   170  GLY170      0.2014
     65  C        -33.9400  -17.0450    1.4320 C.2   170  GLY170      0.2639
     66  O        -32.8450  -16.9020    0.8860 O.2   170  GLY170     -0.2714
     67  N        -34.0880  -17.5180    2.6620 N.am  171  VAL171     -0.1963
     68  CA       -32.9590  -17.8740    3.5140 C.3   171  VAL171      0.1727
     69  C        -32.3880  -19.2900    3.3410 C.2   171  VAL171      0.2617
     70  O        -31.2710  -19.5580    3.7760 O.2   171  VAL171     -0.2715
     71  CB       -33.3420  -17.6440    4.9880 C.3   171  VAL171      0.0290
     72  CG1      -32.8690  -18.7860    5.8500 C.3   171  VAL171      0.0023
     73  CG2      -32.7580  -16.3290    5.4630 C.3   171  VAL171      0.0023
     74  N        -33.1400  -20.1920    2.7170 N.am  172  GLY172     -0.1940
     75  CA       -32.6330  -21.5410    2.5230 C.3   172  GLY172      0.2014
     76  C        -33.3770  -22.5950    3.3240 C.2   172  GLY172      0.2639
     77  O        -32.8430  -23.6700    3.6130 O.2   172  GLY172     -0.2714
     78  N        -34.6210  -22.2880    3.6770 N.am  173  LYS173     -0.1963
     79  CA       -35.4540  -23.1960    4.4510 C.3   173  LYS173      0.1728
     80  C        -35.7280  -24.5030    3.7140 C.2   173  LYS173      0.2616
     81  O        -35.5620  -25.5900    4.2710 O.2   173  LYS173     -0.2715
     82  CB       -36.7820  -22.5120    4.8030 C.3   173  LYS173      0.0311
     83  CG       -36.8240  -21.9040    6.1930 C.3   173  LYS173      0.0038
     84  CD       -37.1410  -20.4310    6.1660 C.3   173  LYS173      0.0206
     85  CE       -38.4820  -20.1450    5.5100 C.3   173  LYS173      0.1093
     86  NZ       -38.4670  -18.7460    4.9930 N.3   173  LYS173     -0.1314
     87  N        -36.1560  -24.4050    2.4640 N.am  174  GLU174     -0.1963
     88  CA       -36.4480  -25.6070    1.7000 C.3   174  GLU174      0.1733
     89  C        -35.1760  -26.3960    1.3930 C.2   174  GLU174      0.2616
     90  O        -35.2030  -27.6160    1.2370 O.2   174  GLU174     -0.2715
     91  CB       -37.1590  -25.2480    0.4020 C.3   174  GLU174      0.0429
     92  CG       -37.7060  -26.4650   -0.3120 C.3   174  GLU174      0.1163
     93  CD       -38.5660  -26.0910   -1.4840 C.2   174  GLU174      0.3649
     94  OE1      -39.1610  -24.9950   -1.4430 O.co2 174  GLU174     -0.2457
     95  OE2      -38.6600  -26.8930   -2.4330 O.co2 174  GLU174     -0.2457
     96  N        -34.0590  -25.6870    1.2960 N.am  175  VAL175     -0.1977
     97  CA       -32.7870  -26.3290    1.0250 C.3   175  VAL175      0.1596
     98  C        -32.4480  -27.2200    2.2150 C.2   175  VAL175      0.2287
     99  O        -32.0980  -28.3860    2.0430 O.2   175  VAL175     -0.2864
    100  CB       -31.6660  -25.2800    0.8070 C.3   175  VAL175      0.0276
    101  CG1      -30.2970  -25.9410    0.8940 C.3   175  VAL175      0.0022
    102  CG2      -31.8340  -24.6250   -0.5560 C.3   175  VAL175      0.0022
    103  N        -44.2920  -26.1010    3.3460 N.3   238  ASP238     -0.1239
    104  CA       -43.7430  -24.7640    3.4480 C.3   238  ASP238      0.1674
    105  C        -44.8560  -23.7990    3.8430 C.2   238  ASP238      0.2266
    106  O        -46.0100  -23.9930    3.4650 O.2   238  ASP238     -0.2867
    107  CB       -43.1170  -24.3520    2.1140 C.3   238  ASP238      0.1410
    108  CG       -42.0550  -23.2970    2.2850 C.2   238  ASP238      0.3668
    109  OD1      -41.9410  -22.7680    3.4140 O.co2 238  ASP238     -0.2456
    110  OD2      -41.3380  -22.9910    1.3060 O.co2 238  ASP238     -0.2456
    111  N        -24.1580  -13.8470    7.9130 N.3   313  ARG313     -0.1245
    112  CA       -23.2570  -14.8990    7.4690 C.3   313  ARG313      0.1563
    113  C        -22.5800  -14.5130    6.1680 C.2   313  ARG313      0.2260
    114  O        -22.7800  -15.1460    5.1320 O.2   313  ARG313     -0.2867
    115  CB       -23.9930  -16.2380    7.3260 C.3   313  ARG313      0.0307
    116  CG       -25.3730  -16.1920    6.6860 C.3   313  ARG313      0.0489
    117  CD       -25.8200  -17.6120    6.3530 C.3   313  ARG313      0.2205
    118  NE       -27.2210  -17.6990    5.9630 N.pl3 313  ARG313     -0.0865
    119  CZ       -27.6880  -18.5140    5.0180 C.cat 313  ARG313      0.5346
    120  NH1      -26.8670  -19.3200    4.3510 N.pl3 313  ARG313      0.1354
    121  NH2      -28.9850  -18.5240    4.7430 N.pl3 313  ARG313      0.1354
    122  N        -21.5670  -18.5110   -2.4900 N.3   320  LEU320     -0.1245
    123  CA       -22.8610  -18.6580   -3.1410 C.3   320  LEU320      0.1561
    124  C        -22.9020  -17.8940   -4.4650 C.2   320  LEU320      0.2260
    125  O        -23.4250  -18.3960   -5.4580 O.2   320  LEU320     -0.2867
    126  CB       -23.9700  -18.1480   -2.2190 C.3   320  LEU320      0.0270
    127  CG       -24.3460  -19.0340   -1.0260 C.3   320  LEU320      0.0019
    128  CD1      -25.2170  -18.2560   -0.0340 C.3   320  LEU320      0.0001
    129  CD2      -25.0830  -20.2640   -1.5440 C.3   320  LEU320      0.0001
    130  N        -21.1160  -19.7360   -7.0790 N.3   323  HIS323     -0.1226
    131  CA       -21.9090  -20.9050   -7.4330 C.3   323  HIS323      0.1752
    132  C        -22.9400  -20.5040   -8.4820 C.2   323  HIS323      0.2596
    133  O        -23.0580  -21.1400   -9.5350 O.2   323  HIS323     -0.2718
    134  CB       -22.6170  -21.4460   -6.1910 C.3   323  HIS323      0.0759
    135  CG       -23.5670  -22.5670   -6.4760 C.ar  323  HIS323      0.0818
    136  ND1      -24.7380  -22.7460   -5.7720 N.ar  323  HIS323     -0.2268
    137  CD2      -23.5100  -23.5810   -7.3740 C.ar  323  HIS323      0.1154
    138  CE1      -25.3630  -23.8200   -6.2230 C.ar  323  HIS323      0.1986
    139  NE2      -24.6390  -24.3450   -7.1950 N.ar  323  HIS323     -0.2212
    140  N        -23.6770  -19.4340   -8.1960 N.am  324  PHE324     -0.1976
    141  CA       -24.6990  -18.9440   -9.1180 C.3   324  PHE324      0.1639
    142  C        -24.0670  -18.4370  -10.4160 C.2   324  PHE324      0.2290
    143  O        -24.6100  -18.6370  -11.5060 O.2   324  PHE324     -0.2864
    144  CB       -25.5110  -17.8280   -8.4470 C.3   324  PHE324      0.0560
    145  CG       -26.3080  -18.2840   -7.2460 C.ar  324  PHE324     -0.0200
    146  CD1      -26.2620  -17.5640   -6.0510 C.ar  324  PHE324     -0.0042
    147  CD2      -27.1230  -19.4140   -7.3150 C.ar  324  PHE324     -0.0042
    148  CE1      -27.0120  -17.9560   -4.9450 C.ar  324  PHE324     -0.0003
    149  CE2      -27.8820  -19.8180   -6.2150 C.ar  324  PHE324     -0.0003
    150  CZ       -27.8280  -19.0890   -5.0260 C.ar  324  PHE324     -0.0000
    151  N        -30.5870  -15.2990    0.1970 N.3   356  VAL356     -0.1231
    152  CA       -30.0440  -16.0730   -0.9050 C.3   356  VAL356      0.1692
    153  C        -30.8820  -16.0230   -2.1720 C.2   356  VAL356      0.2591
    154  O        -30.3320  -15.9690   -3.2790 O.2   356  VAL356     -0.2718
    155  CB       -29.8540  -17.5400   -0.5220 C.3   356  VAL356      0.0266
    156  CG1      -29.0040  -18.2270   -1.5760 C.3   356  VAL356      0.0020
    157  CG2      -29.2030  -17.6450    0.8500 C.3   356  VAL356      0.0020
    158  N        -32.2060  -16.0500   -2.0260 N.am  357  ARG357     -0.1980
    159  CA       -33.0750  -16.0080   -3.1980 C.3   357  ARG357      0.1597
    160  C        -32.8230  -14.7060   -3.9210 C.2   357  ARG357      0.2287
    161  O        -32.8590  -14.6480   -5.1490 O.2   357  ARG357     -0.2864
    162  CB       -34.5600  -16.1050   -2.8080 C.3   357  ARG357      0.0334
    163  CG       -35.5380  -16.0090   -3.9990 C.3   357  ARG357      0.0492
    164  CD       -35.5590  -17.2730   -4.8830 C.3   357  ARG357      0.2205
    165  NE       -36.4000  -18.3350   -4.3130 N.pl3 357  ARG357     -0.0865
    166  CZ       -36.6300  -19.5150   -4.8870 C.cat 357  ARG357      0.5346
    167  NH1      -36.0820  -19.8040   -6.0590 N.pl3 357  ARG357      0.1354
    168  NH2      -37.4130  -20.4040   -4.2920 N.pl3 357  ARG357      0.1354
    169  N        -29.5190  -14.8630   -5.6410 N.3   360  LYS360     -0.1245
    170  CA       -29.6290  -15.6670   -6.8480 C.3   360  LYS360      0.1561
    171  C        -30.1560  -14.8630   -8.0190 C.2   360  LYS360      0.2260
    172  O        -29.5650  -14.8760   -9.1030 O.2   360  LYS360     -0.2867
    173  CB       -30.5430  -16.8620   -6.6010 C.3   360  LYS360      0.0271
    174  CG       -30.5200  -17.8960   -7.7100 C.3   360  LYS360      0.0035
    175  CD       -31.3040  -19.1320   -7.2920 C.3   360  LYS360      0.0206
    176  CE       -30.9170  -20.3670   -8.1100 C.3   360  LYS360      0.1093
    177  NZ       -31.5670  -21.6140   -7.5880 N.3   360  LYS360     -0.1314
@<TRIPOS>BOND
     1   143   142    2
     2   142   141    1
     3     9     7   ar
     4   133   132    2
     5   141   144    1
     6   141   140    1
     7   172   171    2
     8   132   140   am
     9   132   131    1
    10     7     6    1
    11     7     8   ar
    12   144   145    1
    13   176   177    1
    14   176   175    1
    15    18    16   ar
    16     6     5    1
    17   171   170    1
    18   174   175    1
    19   174   173    1
    20     1     2    1
    21   131   130    1
    22   131   134    1
    23   137   139   ar
    24   137   135   ar
    25   147   145   ar
    26   147   149   ar
    27     2     5    1
    28     2     3    1
    29   145   146   ar
    30   139   138   ar
    31    16    17   ar
    32    16    15    1
    33   170   173    1
    34   170   169    1
    35   135   134    1
    36   135   136   ar
    37    15    14    1
    38   138   136   ar
    39   149   150   ar
    40     3    10   am
    41     3     4    2
    42    10    11    1
    43   167   166    1
    44   146   148   ar
    45    14    11    1
    46   125   124    2
    47   161   160    2
    48   150   148   ar
    49    11    12    1
    50   166   165    2
    51   166   168    1
    52   164   165    1
    53   164   163    1
    54    13    12    2
    55   124   123    1
    56    12    19   am
    57   163   162    1
    58   160   159    1
    59    30    29    1
    60   154   153    2
    61   159   162    1
    62   159   158    1
    63   123   122    1
    64   123   126    1
    65    28    29   ar
    66    28    26   ar
    67    29    27   ar
    68    19    20    1
    69    95    93   ar
    70    26    24   ar
    71   126   127    1
    72    37    35    1
    73   153   158   am
    74   153   152    1
    75    27    25   ar
    76    20    21    1
    77    20    23    1
    78   156   155    1
    79   129   127    1
    80    24    25   ar
    81    24    23    1
    82    93    94   ar
    83    93    92    1
    84    22    21    2
    85    21    31   am
    86   127   128    1
    87   152   155    1
    88   152   151    1
    89    35    36    1
    90    35    32    1
    91    31    32    1
    92   102   100    1
    93   155   157    1
    94    92    91    1
    95    32    33    1
    96    91    88    1
    97    64    65    1
    98    64    63    1
    99   100   101    1
   100   100    97    1
   101    66    65    2
   102    97    96    1
   103    97    98    1
   104    90    89    2
   105    96    89   am
   106   110   108   ar
   107    89    88    1
   108    65    67   am
   109    33    34    2
   110    33    38   am
   111    63    59   am
   112    88    87    1
   113    99    98    2
   114   107   108    1
   115   107   104    1
   116   108   109   ar
   117    38    39    1
   118    59    60    2
   119    59    58    1
   120    87    80   am
   121    75    74    1
   122    75    76    1
   123    61    62    1
   124    61    58    1
   125    46    44   ar
   126    46    48   ar
   127    67    68    1
   128    74    69   am
   129    44    43   ar
   130    58    57    1
   131    76    77    2
   132    76    78   am
   133    69    68    1
   134    69    70    2
   135   103   104    1
   136   104   105    1
   137   106   105    2
   138    68    71    1
   139    48    47   ar
   140    78    79    1
   141    80    81    2
   142    80    79    1
   143    39    40    1
   144    39    42    1
   145    43    42    1
   146    43    45   ar
   147    40    41    2
   148   120   119    1
   149    79    82    1
   150   121   119    1
   151    47    45   ar
   152    82    83    1
   153    71    73    1
   154    71    72    1
   155    86    85    1
   156   119   118    2
   157   114   113    2
   158    85    84    1
   159   118   117    1
   160    84    83    1
   161   113   112    1
   162   117   116    1
   163    56    55    1
   164   116   115    1
   165    54    53    1
   166    54    55    1
   167    53    50    1
   168   115   112    1
   169   112   111    1
   170    50    51    1
   171    50    49    1
   172    52    51    2
