@<TRIPOS>MOLECULE
tmp/1nymA00.pdb
 100 93 0 0 0
SMALL
GASTEIGER

@<TRIPOS>ATOM
      1  N         10.3380    4.3570   34.9570 N.3    45  SER45      -0.1217
      2  CA         9.0630    4.4040   35.6460 C.3    45  SER45       0.1889
      3  C          7.9300    3.6670   34.9520 C.2    45  SER45       0.2288
      4  O          6.8370    3.5380   35.5290 O.2    45  SER45      -0.2866
      5  CB         8.6370    5.8390   35.9270 C.3    45  SER45       0.2089
      6  OG         9.5500    6.4540   36.8120 O.3    45  SER45      -0.2183
      7  N          5.9690    1.0650   36.8790 N.3    48  LYS48      -0.1245
      8  CA         4.9750    1.3560   37.9120 C.3    48  LYS48       0.1561
      9  C          3.5820    0.8650   37.5160 C.2    48  LYS48       0.2260
     10  O          2.7660    0.5680   38.4130 O.2    48  LYS48      -0.2867
     11  CB         5.0190    2.8640   38.2310 C.3    48  LYS48       0.0271
     12  CG         6.3050    3.2700   38.9060 C.3    48  LYS48       0.0035
     13  CD         6.5850    4.7330   38.9630 C.3    48  LYS48       0.0206
     14  CE         7.9420    5.0600   39.5620 C.3    48  LYS48       0.1093
     15  NZ         8.4250    6.4500   39.3280 N.3    48  LYS48      -0.1314
     16  N         14.2340   10.6960   45.8990 N.3    79  GLU79      -0.1182
     17  CA        14.1320   11.7890   44.9500 C.3    79  GLU79       0.1915
     18  C         12.8950   11.6510   44.0740 C.2    79  GLU79       0.2634
     19  O         12.5680   10.5530   43.6560 O.2    79  GLU79      -0.2714
     20  CB        15.4150   11.8430   44.1100 C.2    79  GLU79       0.0085
     21  CG        15.7700   10.6830   43.2190 C.2    79  GLU79       0.0835
     22  CD        17.1370   10.4560   42.6370 C.2    79  GLU79       0.3877
     23  OE1       18.1490   10.2690   43.3740 O.co2  79  GLU79      -0.2406
     24  OE2       17.2810   10.4170   41.3720 O.co2  79  GLU79      -0.2406
     25  N         12.2650   12.7720   43.8030 N.am   80  TYR80      -0.1973
     26  CA        11.1310   12.9400   42.9020 C.3    80  TYR80       0.1639
     27  C          9.9160   12.2050   43.4620 C.2    80  TYR80       0.2290
     28  O          9.4610   11.1660   42.9980 O.2    80  TYR80      -0.2864
     29  CB        11.3810   12.5010   41.4280 C.3    80  TYR80       0.0560
     30  CG        10.0900   12.8110   40.6970 C.ar   80  TYR80      -0.0198
     31  CD1        9.7880   14.1520   40.4790 C.ar   80  TYR80      -0.0009
     32  CD2        9.1790   11.8290   40.2930 C.ar   80  TYR80      -0.0009
     33  CE1        8.6180   14.5100   39.8440 C.ar   80  TYR80       0.0417
     34  CE2        8.0120   12.2110   39.6770 C.ar   80  TYR80       0.0417
     35  CZ         7.7350   13.5300   39.4510 C.ar   80  TYR80       0.1957
     36  OH         6.5730   13.9140   38.8100 O.3    80  TYR80      -0.2866
     37  N          4.2210    9.7700   38.6160 N.3   105  SER105     -0.1217
     38  CA         5.4790    9.0480   38.6390 C.3   105  SER105      0.1889
     39  C          6.1950    9.1140   39.9790 C.2   105  SER105      0.2288
     40  O          7.4250    9.0320   40.0450 O.2   105  SER105     -0.2866
     41  CB         6.3870    9.4630   37.4730 C.3   105  SER105      0.2089
     42  OG         7.0770    8.2840   37.0340 O.3   105  SER105     -0.2183
     43  N          8.2070    8.5000   43.1040 N.3   107  ASN107     -0.1240
     44  CA         9.1210    7.4040   43.3730 C.3   107  ASN107      0.1653
     45  C          8.9670    6.7720   44.7410 C.2   107  ASN107      0.2266
     46  O          9.0790    5.5540   44.8570 O.2   107  ASN107     -0.2867
     47  CB        10.5680    7.8690   43.1650 C.3   107  ASN107      0.1155
     48  CG        10.9170    7.9480   41.6990 C.2   107  ASN107      0.2627
     49  OD1       10.4840    7.1310   40.9150 O.2   107  ASN107     -0.2716
     50  ND2       11.7590    8.8810   41.3330 N.am  107  ASN107     -0.0877
     51  N         13.6330    2.2980   43.7740 N.3   141  GLU141     -0.1231
     52  CA        13.9440    3.6690   43.4370 C.3   141  GLU141      0.1684
     53  C         14.9810    4.2060   44.4030 C.2   141  GLU141      0.2434
     54  O         14.7880    4.0340   45.6250 O.2   141  GLU141     -0.2733
     55  CB        12.7040    4.5870   43.5250 C.3   141  GLU141      0.0402
     56  CG        11.6010    4.2090   42.5560 C.3   141  GLU141      0.1161
     57  CD        11.8980    4.5420   41.1250 C.2   141  GLU141      0.3649
     58  OE1       12.9700    5.1140   40.8330 O.co2 141  GLU141     -0.2457
     59  OE2       11.0210    4.2000   40.2570 O.co2 141  GLU141     -0.2457
     60  N         16.0060    4.9350   43.9910 N.am  142  PRO142     -0.2729
     61  CA        16.2370    5.4050   42.6230 C.3   142  PRO142      0.1401
     62  C         17.0900    4.5100   41.7420 C.2   142  PRO142      0.2269
     63  O         17.2010    4.8080   40.5290 O.2   142  PRO142     -0.2865
     64  CB        17.0790    6.6750   42.8810 C.3   142  PRO142      0.0296
     65  CG        17.8690    6.3680   44.1150 C.3   142  PRO142      0.0237
     66  CD        16.9240    5.5890   44.9580 C.3   142  PRO142      0.0939
     67  N         16.8180    3.1110   37.9170 N.3   145  ASN145     -0.1240
     68  CA        16.9370    3.9550   36.7380 C.3   145  ASN145      0.1653
     69  C         18.3690    4.1220   36.2060 C.2   145  ASN145      0.2266
     70  O         18.6240    4.9420   35.3290 O.2   145  ASN145     -0.2867
     71  CB        16.3690    5.3480   37.0200 C.3   145  ASN145      0.1155
     72  CG        14.9300    5.3250   37.4710 C.2   145  ASN145      0.2627
     73  OD1       14.0340    4.8960   36.7600 O.2   145  ASN145     -0.2716
     74  ND2       14.7290    5.7460   38.7060 N.am  145  ASN145     -0.0877
     75  N         11.7970    8.0710   32.6140 N.3   212  ALA212     -0.1231
     76  CA        13.0650    8.7390   32.3660 C.3   212  ALA212      0.1694
     77  C         14.0940    8.1310   33.3250 C.2   212  ALA212      0.2593
     78  O         13.7880    7.8820   34.4760 O.2   212  ALA212     -0.2718
     79  CB        12.9650   10.2430   32.6110 C.3   212  ALA212      0.0304
     80  N         15.3250    8.0010   32.8460 N.am  213  GLY213     -0.1942
     81  CA        16.3770    7.5080   33.6850 C.3   213  GLY213      0.2014
     82  C         17.7310    8.0820   33.3270 C.2   213  GLY213      0.2638
     83  O         17.8180    9.0680   32.5880 O.2   213  GLY213     -0.2714
     84  N         18.7960    7.4780   33.8430 N.am  214  GLU214     -0.1977
     85  CA        20.1510    7.9480   33.5640 C.3   214  GLU214      0.1602
     86  C         20.4940    7.6220   32.1250 C.2   214  GLU214      0.2287
     87  O         19.8380    6.8560   31.4260 O.2   214  GLU214     -0.2864
     88  CB        21.1230    7.2970   34.5480 C.3   214  GLU214      0.0415
     89  CG        20.8620    7.6040   36.0010 C.3   214  GLU214      0.1163
     90  CD        21.0370    9.0460   36.3800 C.2   214  GLU214      0.3649
     91  OE1       21.3520    9.8430   35.4930 O.co2 214  GLU214     -0.2457
     92  OE2       20.8920    9.3590   37.5810 O.co2 214  GLU214     -0.2457
     93  N         16.5570   16.3770   27.3100 N.3   245  MET245     -0.1245
     94  CA        15.2110   15.8490   27.5380 C.3   245  MET245      0.1570
     95  C         14.2400   16.3690   26.4760 C.2   245  MET245      0.2261
     96  O         13.4180   15.6150   25.9780 O.2   245  MET245     -0.2867
     97  CB        14.7340   16.2580   28.9470 C.3   245  MET245      0.0387
     98  CG        13.4150   15.6230   29.2880 C.3   245  MET245      0.0595
     99  SD        13.4050   13.8400   29.3620 S.3   245  MET245     -0.1393
    100  CE        14.3590   13.5420   30.8360 C.3   245  MET245      0.0692
@<TRIPOS>BOND
     1    96    95    2
     2    95    94    1
     3    93    94    1
     4    94    97    1
     5    97    98    1
     6    98    99    1
     7    99   100    1
     8    87    86    2
     9    86    85    1
    10    76    79    1
    11    76    75    1
    12    76    77    1
    13    83    82    2
    14    80    77   am
    15    80    81    1
    16    77    78    2
    17    82    81    1
    18    82    84   am
    19    85    84    1
    20    85    88    1
    21    88    89    1
    22     3     4    2
    23     3     2    1
    24     1     2    1
    25    70    69    2
    26    91    90   ar
    27     2     5    1
    28     5     6    1
    29    89    90    1
    30    69    68    1
    31    90    92   ar
    32    68    71    1
    33    68    67    1
    34    73    72    2
    35     7     8    1
    36    71    72    1
    37    42    41    1
    38    72    74   am
    39    41    38    1
    40     9     8    1
    41     9    10    2
    42     8    11    1
    43    11    12    1
    44    37    38    1
    45    38    39    1
    46    36    35    1
    47    12    13    1
    48    13    14    1
    49    15    14    1
    50    35    34   ar
    51    35    33   ar
    52    34    32   ar
    53    33    31   ar
    54    39    40    2
    55    59    57   ar
    56    32    30   ar
    57    31    30   ar
    58    63    62    2
    59    30    29    1
    60    58    57   ar
    61    49    48    2
    62    57    56    1
    63    50    48   am
    64    24    22   ar
    65    29    26    1
    66    48    47    1
    67    62    61    1
    68    56    55    1
    69    61    64    1
    70    61    60    1
    71    22    21    1
    72    22    23   ar
    73    64    65    1
    74    26    27    1
    75    26    25    1
    76    28    27    2
    77    43    44    1
    78    47    44    1
    79    21    20    2
    80    44    45    1
    81    52    55    1
    82    52    51    1
    83    52    53    1
    84    19    18    2
    85    25    18   am
    86    60    53   am
    87    60    66    1
    88    18    17    1
    89    20    17    1
    90    65    66    1
    91    53    54    2
    92    45    46    2
    93    17    16    1
