@<TRIPOS>MOLECULE
tmp/1nz7A00.pdb
 230 221 0 0 0
SMALL
GASTEIGER

@<TRIPOS>ATOM
      1  N         22.6220   17.2660   24.8030 N.3    19  TYR19      -0.1241
      2  CA        23.1910   18.6070   24.7590 C.3    19  TYR19       0.1605
      3  C         22.1480   19.5900   24.2360 C.2    19  TYR19       0.2264
      4  O         22.0120   20.7070   24.7470 O.2    19  TYR19      -0.2867
      5  CB        24.4320   18.6520   23.8550 C.3    19  TYR19       0.0534
      6  CG        24.9690   20.0550   23.6930 C.ar   19  TYR19      -0.0201
      7  CD1       25.4840   20.7510   24.7890 C.ar   19  TYR19      -0.0009
      8  CD2       24.8640   20.7310   22.4740 C.ar   19  TYR19      -0.0009
      9  CE1       25.8670   22.0850   24.6830 C.ar   19  TYR19       0.0417
     10  CE2       25.2450   22.0720   22.3580 C.ar   19  TYR19       0.0417
     11  CZ        25.7380   22.7430   23.4690 C.ar   19  TYR19       0.1957
     12  OH        26.0390   24.0840   23.3880 O.3    19  TYR19      -0.2866
     13  N         20.3570   23.1390   25.5750 N.3    23  ARG23      -0.1245
     14  CA        20.3250   24.3970   24.8410 C.3    23  ARG23       0.1563
     15  C         18.9150   24.9770   24.8270 C.2    23  ARG23       0.2260
     16  O         18.7300   26.1870   24.9590 O.2    23  ARG23      -0.2867
     17  CB        20.7780   24.1950   23.3950 C.3    23  ARG23       0.0307
     18  CG        22.2710   24.0230   23.1980 C.3    23  ARG23       0.0489
     19  CD        22.5900   24.0400   21.7100 C.3    23  ARG23       0.2205
     20  NE        22.2190   25.3130   21.0920 N.pl3  23  ARG23      -0.0865
     21  CZ        22.0410   25.4880   19.7860 C.cat  23  ARG23       0.5346
     22  NH1       22.1940   24.4710   18.9510 N.pl3  23  ARG23       0.1354
     23  NH2       21.7170   26.6820   19.3120 N.pl3  23  ARG23       0.1354
     24  N         17.9170   26.1400   28.3540 N.3    26  ALA26      -0.1231
     25  CA        18.7690   27.2300   28.8390 C.3    26  ALA26       0.1694
     26  C         18.0670   28.5820   28.8860 C.2    26  ALA26       0.2593
     27  O         17.2310   28.8940   28.0410 O.2    26  ALA26      -0.2718
     28  CB        20.0350   27.3310   27.9890 C.3    26  ALA26       0.0304
     29  N         18.4350   29.3770   29.8850 N.am   27  SER27      -0.1938
     30  CA        17.8670   30.7010   30.1090 C.3    27  SER27       0.2055
     31  C         18.1260   31.6650   28.9550 C.2    27  SER27       0.2643
     32  O         19.0800   31.5140   28.1940 O.2    27  SER27      -0.2714
     33  CB        18.4480   31.3050   31.3960 C.3    27  SER27       0.2130
     34  OG        18.3920   30.3920   32.4800 O.3    27  SER27      -0.2179
     35  N         17.2610   32.6610   28.8270 N.am   28  ASP28      -0.1971
     36  CA        17.4250   33.6660   27.7920 C.3    28  ASP28       0.1709
     37  C         17.0890   35.0210   28.3890 C.2    28  ASP28       0.2293
     38  O         15.9220   35.3450   28.5990 O.2    28  ASP28      -0.2864
     39  CB        16.5110   33.3910   26.6010 C.3    28  ASP28       0.1436
     40  CG        16.8890   34.2160   25.3860 C.2    28  ASP28       0.3671
     41  OD1       16.1500   34.1840   24.3830 O.co2  28  ASP28      -0.2456
     42  OD2       17.9390   34.8940   25.4350 O.co2  28  ASP28      -0.2456
     43  N         32.9200   38.2960   19.5560 N.3    45  TYR45      -0.1227
     44  CA        31.9680   37.5690   18.7340 C.3    45  TYR45       0.1736
     45  C         30.6290   38.2650   18.7690 C.2    45  TYR45       0.2595
     46  O         30.1810   38.7200   19.8240 O.2    45  TYR45      -0.2718
     47  CB        31.8100   36.1420   19.2420 C.3    45  TYR45       0.0548
     48  CG        33.0890   35.3640   19.1780 C.ar   45  TYR45      -0.0200
     49  CD1       33.6850   35.0630   17.9470 C.ar   45  TYR45      -0.0009
     50  CD2       33.7180   34.9310   20.3450 C.ar   45  TYR45      -0.0009
     51  CE1       34.8790   34.3470   17.8830 C.ar   45  TYR45       0.0417
     52  CE2       34.9080   34.2180   20.2960 C.ar   45  TYR45       0.0417
     53  CZ        35.4870   33.9280   19.0630 C.ar   45  TYR45       0.1957
     54  OH        36.6760   33.2290   19.0150 O.3    45  TYR45      -0.2866
     55  N         29.9910   38.3350   17.6070 N.am   46  ARG46      -0.1966
     56  CA        28.6980   38.9830   17.4870 C.3    46  ARG46       0.1729
     57  C         27.6480   38.2130   18.2820 C.2    46  ARG46       0.2616
     58  O         26.7940   38.8120   18.9360 O.2    46  ARG46      -0.2715
     59  CB        28.2830   39.0580   16.0130 C.3    46  ARG46       0.0348
     60  CG        27.0770   39.9470   15.7620 C.3    46  ARG46       0.0492
     61  CD        26.5370   39.7720   14.3540 C.3    46  ARG46       0.2205
     62  NE        26.1430   38.3900   14.0980 N.pl3  46  ARG46      -0.0865
     63  CZ        25.5280   37.9790   12.9940 C.cat  46  ARG46       0.5346
     64  NH1       25.2310   38.8460   12.0350 N.pl3  46  ARG46       0.1354
     65  NH2       25.2140   36.6980   12.8460 N.pl3  46  ARG46       0.1354
     66  N         27.7320   36.8860   18.2390 N.am   47  ASP47      -0.1957
     67  CA        26.7720   36.0340   18.9310 C.3    47  ASP47       0.1840
     68  C         27.0760   35.6380   20.3850 C.2    47  ASP47       0.2621
     69  O         26.4000   34.7640   20.9390 O.2    47  ASP47      -0.2715
     70  CB        26.5190   34.7640   18.1050 C.3    47  ASP47       0.1450
     71  CG        27.8000   34.0810   17.6730 C.2    47  ASP47       0.3671
     72  OD1       28.8790   34.4660   18.1650 O.co2  47  ASP47      -0.2456
     73  OD2       27.7210   33.1520   16.8440 O.co2  47  ASP47      -0.2456
     74  N         28.0730   36.2580   21.0120 N.am   48  VAL48      -0.1977
     75  CA        28.3780   35.9240   22.4090 C.3    48  VAL48       0.1596
     76  C         28.4010   37.1690   23.2860 C.2    48  VAL48       0.2287
     77  O         29.3830   37.9100   23.3070 O.2    48  VAL48      -0.2864
     78  CB        29.7250   35.2020   22.5490 C.3    48  VAL48       0.0276
     79  CG1       29.9850   34.8780   24.0220 C.3    48  VAL48       0.0022
     80  CG2       29.7100   33.9190   21.7280 C.3    48  VAL48       0.0022
     81  N         24.6110   38.7380   29.6700 N.3    51  PHE51      -0.1241
     82  CA        23.2670   39.1900   30.0300 C.3    51  PHE51       0.1605
     83  C         23.4820   40.4510   30.8440 C.2    51  PHE51       0.2264
     84  O         24.4410   40.5350   31.6160 O.2    51  PHE51      -0.2867
     85  CB        22.5280   38.1680   30.9060 C.3    51  PHE51       0.0534
     86  CG        22.3170   36.8360   30.2450 C.ar   51  PHE51      -0.0203
     87  CD1       21.8160   36.7580   28.9520 C.ar   51  PHE51      -0.0042
     88  CD2       22.6380   35.6570   30.9130 C.ar   51  PHE51      -0.0042
     89  CE1       21.6400   35.5170   28.3300 C.ar   51  PHE51      -0.0003
     90  CE2       22.4680   34.4200   30.3090 C.ar   51  PHE51      -0.0003
     91  CZ        21.9690   34.3490   29.0130 C.ar   51  PHE51      -0.0000
     92  N         44.8340   27.0150   15.4870 N.3   115  LYS115     -0.1245
     93  CA        44.3440   26.7960   14.1320 C.3   115  LYS115      0.1561
     94  C         44.8360   27.9010   13.1970 C.2   115  LYS115      0.2260
     95  O         44.1220   28.3000   12.2700 O.2   115  LYS115     -0.2867
     96  CB        42.8140   26.7680   14.1110 C.3   115  LYS115      0.0271
     97  CG        42.2030   25.6240   14.8960 C.3   115  LYS115      0.0035
     98  CD        40.6880   25.6990   14.8650 C.3   115  LYS115      0.0206
     99  CE        40.0560   24.5510   15.6370 C.3   115  LYS115      0.1093
    100  NZ        38.5650   24.5940   15.5960 N.3   115  LYS115     -0.1314
    101  N         43.1550   33.9020   18.7830 N.3   119  LYS119     -0.1245
    102  CA        42.0060   33.5180   19.5880 C.3   119  LYS119      0.1561
    103  C         41.9160   34.3920   20.8420 C.2   119  LYS119      0.2260
    104  O         40.9160   34.3680   21.5750 O.2   119  LYS119     -0.2867
    105  CB        42.1530   32.0490   20.0020 C.3   119  LYS119      0.0271
    106  CG        42.1250   31.0480   18.8490 C.3   119  LYS119      0.0035
    107  CD        40.7210   30.4840   18.6480 C.3   119  LYS119      0.0206
    108  CE        40.1100   30.9110   17.3260 C.3   119  LYS119      0.1093
    109  NZ        40.8150   30.2840   16.1780 N.3   119  LYS119     -0.1314
    110  N         45.3000   22.2920   25.6180 N.3   178  TRP178     -0.1228
    111  CA        43.9680   21.9810   25.1170 C.3   178  TRP178      0.1722
    112  C         44.1030   21.8150   23.6050 C.2   178  TRP178      0.2437
    113  O         44.6190   22.6950   22.9150 O.2   178  TRP178     -0.2733
    114  CB        42.9720   23.0980   25.4450 C.3   178  TRP178      0.0563
    115  CG        41.5420   22.7170   25.1510 C.ar  178  TRP178      0.0003
    116  CD1       40.9480   22.6460   23.9240 C.ar  178  TRP178      0.0946
    117  CD2       40.5530   22.2780   26.0990 C.ar  178  TRP178      0.0152
    118  NE1       39.6570   22.1840   24.0450 N.ar  178  TRP178     -0.2442
    119  CE2       39.3890   21.9490   25.3680 C.ar  178  TRP178      0.0810
    120  CE3       40.5400   22.1290   27.4930 C.ar  178  TRP178      0.0012
    121  CZ2       38.2220   21.4800   25.9840 C.ar  178  TRP178      0.0191
    122  CZ3       39.3760   21.6620   28.1080 C.ar  178  TRP178      0.0001
    123  CH2       38.2340   21.3420   27.3490 C.ar  178  TRP178      0.0015
    124  N         43.6370   20.6810   23.0700 N.am  179  PRO179     -0.2718
    125  CA        43.7090   20.3840   21.6340 C.3   179  PRO179      0.1535
    126  C         43.0600   21.4160   20.7140 C.2   179  PRO179      0.2598
    127  O         42.0970   22.0800   21.0900 O.2   179  PRO179     -0.2715
    128  CB        43.0400   19.0170   21.5350 C.3   179  PRO179      0.0310
    129  CG        42.0360   19.0600   22.6700 C.3   179  PRO179      0.0237
    130  CD        42.8370   19.6670   23.7820 C.3   179  PRO179      0.0939
    131  N         43.5990   21.5470   19.5030 N.am  180  ASP180     -0.1972
    132  CA        43.0580   22.4950   18.5350 C.3   180  ASP180      0.1709
    133  C         41.6280   22.1000   18.1980 C.2   180  ASP180      0.2293
    134  O         40.7510   22.9510   18.0630 O.2   180  ASP180     -0.2864
    135  CB        43.9110   22.5130   17.2610 C.3   180  ASP180      0.1436
    136  CG        44.5080   23.8790   16.9830 C.2   180  ASP180      0.3671
    137  OD1       45.1570   24.0530   15.9300 O.co2 180  ASP180     -0.2456
    138  OD2       44.3290   24.7840   17.8240 O.co2 180  ASP180     -0.2456
    139  N         38.3420   19.2930   19.1210 N.3   182  GLY182     -0.1225
    140  CA        37.8010   18.4130   20.1390 C.3   182  GLY182      0.1811
    141  C         38.1300   18.7370   21.5840 C.2   182  GLY182      0.2280
    142  O         38.3890   19.8870   21.9450 O.2   182  GLY182     -0.2866
    143  N         38.5490   31.8340   27.7050 N.3   214  CYS214     -0.1221
    144  CA        39.1230   31.0550   26.6080 C.3   214  CYS214      0.1808
    145  C         39.0230   32.0500   25.4580 C.2   214  CYS214      0.2602
    146  O         39.6080   33.1330   25.5440 O.2   214  CYS214     -0.2717
    147  CB        38.3280   29.7640   26.3280 C.3   214  CYS214      0.0970
    148  SG        36.5230   29.8170   26.5630 S.3   214  CYS214     -0.0800
    149  N         38.3000   31.7230   24.3930 N.am  215  SER215     -0.1938
    150  CA        38.1540   32.6960   23.3200 C.3   215  SER215      0.2055
    151  C         36.8360   33.4350   23.5580 C.2   215  SER215      0.2642
    152  O         36.8160   34.6530   23.7840 O.2   215  SER215     -0.2714
    153  CB        38.1370   32.0240   21.9510 C.3   215  SER215      0.2130
    154  OG        38.3550   32.9930   20.9370 O.3   215  SER215     -0.2179
    155  N         35.7350   32.6900   23.5310 N.am  216  ALA216     -0.1977
    156  CA        34.4190   33.2760   23.7520 C.3   216  ALA216      0.1597
    157  C         34.0970   33.3360   25.2430 C.2   216  ALA216      0.2287
    158  O         33.1620   34.0240   25.6580 O.2   216  ALA216     -0.2864
    159  CB        33.3560   32.4630   23.0210 C.3   216  ALA216      0.0319
    160  N         32.9930   30.8240   27.1000 N.3   218  ILE218     -0.1231
    161  CA        31.7660   30.0820   27.4000 C.3   218  ILE218      0.1692
    162  C         31.9340   28.5720   27.2580 C.2   218  ILE218      0.2593
    163  O         31.4010   27.8040   28.0580 O.2   218  ILE218     -0.2718
    164  CB        30.5760   30.5080   26.4790 C.3   218  ILE218      0.0266
    165  CG1       30.8310   30.0600   25.0340 C.3   218  ILE218      0.0019
    166  CG2       30.3710   32.0140   26.5480 C.3   218  ILE218      0.0020
    167  CD1       29.7220   30.4520   24.0560 C.3   218  ILE218      0.0001
    168  N         32.6650   28.1520   26.2310 N.am  219  GLY219     -0.1942
    169  CA        32.8730   26.7330   25.9960 C.3   219  GLY219      0.2014
    170  C         33.7990   26.0690   26.9940 C.2   219  GLY219      0.2638
    171  O         33.3460   25.3370   27.8790 O.2   219  GLY219     -0.2714
    172  N         35.0980   26.3200   26.8520 N.am  220  ARG220     -0.1977
    173  CA        36.0940   25.7370   27.7440 C.3   220  ARG220      0.1597
    174  C         35.9910   26.3120   29.1580 C.2   220  ARG220      0.2287
    175  O         36.1260   25.5840   30.1390 O.2   220  ARG220     -0.2864
    176  CB        37.4980   25.9640   27.1810 C.3   220  ARG220      0.0334
    177  CG        37.7030   25.4040   25.7760 C.3   220  ARG220      0.0492
    178  CD        39.1510   25.5400   25.3320 C.3   220  ARG220      0.2205
    179  NE        39.2960   25.3500   23.8910 N.pl3 220  ARG220     -0.0865
    180  CZ        40.3660   25.7100   23.1790 C.cat 220  ARG220      0.5346
    181  NH1       41.4140   26.2860   23.7680 N.pl3 220  ARG220      0.1354
    182  NH2       40.3810   25.5130   21.8690 N.pl3 220  ARG220      0.1354
    183  N         23.9130   28.6540   33.3670 N.3   253  ARG253     -0.1245
    184  CA        23.4680   29.3320   32.1610 C.3   253  ARG253      0.1563
    185  C         22.4400   30.4260   32.3900 C.2   253  ARG253      0.2260
    186  O         21.9550   31.0360   31.4440 O.2   253  ARG253     -0.2867
    187  CB        22.9630   28.3190   31.1350 C.3   253  ARG253      0.0307
    188  CG        24.0950   27.5560   30.4400 C.3   253  ARG253      0.0489
    189  CD        23.5790   26.9330   29.1700 C.3   253  ARG253      0.2205
    190  NE        24.5920   26.2460   28.3810 N.pl3 253  ARG253     -0.0865
    191  CZ        24.4610   26.0200   27.0790 C.cat 253  ARG253      0.5346
    192  NH1       23.3680   26.4370   26.4580 N.pl3 253  ARG253      0.1354
    193  NH2       25.4070   25.3850   26.3960 N.pl3 253  ARG253      0.1354
    194  N         25.3740   32.9220   28.7710 N.3   257  MET257     -0.1230
    195  CA        24.9440   32.0530   27.6930 C.3   257  MET257      0.1702
    196  C         25.9760   31.0460   27.1850 C.2   257  MET257      0.2592
    197  O         27.1850   31.2840   27.2280 O.2   257  MET257     -0.2718
    198  CB        24.4930   32.9050   26.5110 C.3   257  MET257      0.0401
    199  CG        25.5970   33.8110   25.9960 C.3   257  MET257      0.0596
    200  SD        25.2850   34.4600   24.3480 S.3   257  MET257     -0.1393
    201  CE        23.8980   35.6070   24.6750 C.3   257  MET257      0.0692
    202  N         25.4580   29.9230   26.6980 N.am  258  GLY258     -0.1957
    203  CA        26.2700   28.8720   26.1120 C.3   258  GLY258      0.1869
    204  C         27.4450   28.2550   26.8400 C.2   258  GLY258      0.2309
    205  O         28.3820   27.8160   26.1830 O.2   258  GLY258     -0.2863
    206  N         29.8080   24.5710   24.9530 N.3   261  GLN261     -0.1231
    207  CA        29.3430   24.7340   23.5780 C.3   261  GLN261      0.1698
    208  C         29.0570   23.5110   22.7270 C.2   261  GLN261      0.2592
    209  O         28.4260   23.6390   21.6800 O.2   261  GLN261     -0.2718
    210  CB        30.3300   25.6170   22.8080 C.3   261  GLN261      0.0381
    211  CG        30.1090   27.0930   23.0090 C.3   261  GLN261      0.0905
    212  CD        28.7720   27.5470   22.4520 C.2   261  GLN261      0.2608
    213  OE1       28.5480   27.5210   21.2380 O.2   261  GLN261     -0.2717
    214  NE2       27.8700   27.9590   23.3390 N.am  261  GLN261     -0.0878
    215  N         29.5240   22.3380   23.1390 N.am  262  THR262     -0.1953
    216  CA        29.2930   21.1350   22.3450 C.3   262  THR262      0.1897
    217  C         28.9930   19.8990   23.1690 C.2   262  THR262      0.2313
    218  O         29.1800   19.8810   24.3800 O.2   262  THR262     -0.2863
    219  CB        30.5130   20.7800   21.4720 C.3   262  THR262      0.1794
    220  OG1       31.5590   20.2490   22.2980 O.3   262  THR262     -0.2208
    221  CG2       31.0210   22.0020   20.7570 C.3   262  THR262      0.0378
    222  N         32.2140   18.6120   24.6950 N.3   265  GLN265     -0.1245
    223  CA        32.5350   19.3250   25.9230 C.3   265  GLN265      0.1566
    224  C         31.6620   18.8430   27.0760 C.2   265  GLN265      0.2260
    225  O         32.1370   18.6820   28.1980 O.2   265  GLN265     -0.2867
    226  CB        32.3530   20.8300   25.7190 C.3   265  GLN265      0.0367
    227  CG        33.6290   21.5440   25.3600 C.3   265  GLN265      0.0905
    228  CD        33.3980   23.0020   25.0440 C.2   265  GLN265      0.2608
    229  OE1       32.4990   23.6260   25.6000 O.2   265  GLN265     -0.2717
    230  NE2       34.2180   23.5590   24.1590 N.am  265  GLN265     -0.0878
@<TRIPOS>BOND
     1    64    63    1
     2    95    94    2
     3    65    63    1
     4    63    62    2
     5    94    93    1
     6    62    61    1
     7    96    93    1
     8    96    97    1
     9    93    92    1
    10    61    60    1
    11    98    97    1
    12    98    99    1
    13   100    99    1
    14    60    59    1
    15   137   136   ar
    16    59    56    1
    17   109   108    1
    18    73    71   ar
    19   136   135    1
    20   136   138   ar
    21   135   132    1
    22   108   107    1
    23    56    55    1
    24    56    57    1
    25    55    45   am
    26    71    70    1
    27    71    72   ar
    28    51    49   ar
    29    51    53   ar
    30    49    48   ar
    31   134   133    2
    32    70    67    1
    33   133   132    1
    34    66    57   am
    35    66    67    1
    36    57    58    2
    37   132   131    1
    38   107   106    1
    39    44    45    1
    40    44    47    1
    41    44    43    1
    42    45    46    2
    43   101   102    1
    44   106   105    1
    45    67    68    1
    46    22    21    1
    47    54    53    1
    48    53    52   ar
    49   139   140    1
    50    48    47    1
    51    48    50   ar
    52    23    21    1
    53   131   126   am
    54   102   105    1
    55   102   103    1
    56    21    20    2
    57   140   141    1
    58    52    50   ar
    59    68    69    2
    60    68    74   am
    61   126   127    2
    62   126   125    1
    63   221   219    1
    64   103   104    2
    65   154   153    1
    66    74    75    1
    67    20    19    1
    68   213   212    2
    69   219   220    1
    70   219   216    1
    71   128   125    1
    72   128   129    1
    73   141   142    2
    74   125   124    1
    75   209   208    2
    76    19    18    1
    77    80    78    1
    78   182   180    1
    79   153   150    1
    80   216   215    1
    81   216   217    1
    82    10     8   ar
    83    10    11   ar
    84    75    78    1
    85    75    76    1
    86   212   211    1
    87   212   214   am
    88     8     6   ar
    89    78    79    1
    90   129   130    1
    91   208   215   am
    92   208   207    1
    93   210   211    1
    94   210   207    1
    95   113   112    2
    96   159   156    1
    97   124   112   am
    98   124   130    1
    99   217   218    2
   100   180   181    1
   101   180   179    2
   102    18    17    1
   103    76    77    2
   104   150   151    1
   105   150   149    1
   106    12    11    1
   107    17    14    1
   108    11     9   ar
   109   155   151   am
   110   155   156    1
   111   151   152    2
   112   207   206    1
   113   112   111    1
   114     6     5    1
   115     6     7   ar
   116   156   157    1
   117     5     2    1
   118   179   178    1
   119   116   118   ar
   120   116   115   ar
   121   118   119   ar
   122   167   165    1
   123   230   228   am
   124     3     4    2
   125     3     2    1
   126   200   201    1
   127   200   199    1
   128    41    40   ar
   129   149   145   am
   130     9     7   ar
   131   222   223    1
   132     2     1    1
   133    15    14    1
   134    15    16    2
   135    14    13    1
   136   165   164    1
   137   228   227    1
   138   228   229    2
   139   111   114    1
   140   111   110    1
   141   115   114    1
   142   115   117   ar
   143   157   158    2
   144   178   177    1
   145   227   226    1
   146   119   121   ar
   147   119   117   ar
   148    40    42   ar
   149    40    39    1
   150   145   146    2
   151   145   144    1
   152   226   223    1
   153   177   176    1
   154   223   224    1
   155   121   123   ar
   156   169   168    1
   157   169   170    1
   158   199   198    1
   159   117   120   ar
   160   203   202    1
   161   203   204    1
   162   205   204    2
   163   168   162   am
   164   147   148    1
   165   147   144    1
   166   193   191    1
   167   192   191    1
   168   164   166    1
   169   164   161    1
   170   198   195    1
   171    39    36    1
   172   144   143    1
   173   202   196   am
   174   172   170   am
   175   172   173    1
   176   170   171    2
   177   224   225    2
   178   191   190    2
   179   160   161    1
   180   176   173    1
   181   196   197    2
   182   196   195    1
   183   162   161    1
   184   162   163    2
   185   123   122   ar
   186   120   122   ar
   187   195   194    1
   188   173   174    1
   189    36    37    1
   190    36    35    1
   191    28    25    1
   192    27    26    2
   193    32    31    2
   194    89    87   ar
   195    89    91   ar
   196    24    25    1
   197   190   189    1
   198    37    38    2
   199    35    31   am
   200    25    26    1
   201    26    29   am
   202    87    86   ar
   203    31    30    1
   204    91    90   ar
   205   174   175    2
   206   189   188    1
   207    81    82    1
   208    29    30    1
   209    82    83    1
   210    82    85    1
   211    30    33    1
   212    86    85    1
   213    86    88   ar
   214    90    88   ar
   215   188   187    1
   216    83    84    2
   217   187   184    1
   218    33    34    1
   219   186   185    2
   220   184   185    1
   221   184   183    1
