@<TRIPOS>MOLECULE
tmp/1nzdA00.pdb
 248 235 0 0 0
SMALL
GASTEIGER

@<TRIPOS>ATOM
      1  N         10.9990   13.2370   26.9150 N.3    15  PHE15      -0.1241
      2  CA        10.5350   11.9000   27.2630 C.3    15  PHE15       0.1605
      3  C          9.1530   11.8500   27.8890 C.2    15  PHE15       0.2264
      4  O          8.7910   10.8520   28.5110 O.2    15  PHE15      -0.2867
      5  CB        11.5570   11.2300   28.1880 C.3    15  PHE15       0.0534
      6  CG        12.9300   11.1250   27.5830 C.ar   15  PHE15      -0.0203
      7  CD1       13.8320   12.1790   27.6830 C.ar   15  PHE15      -0.0042
      8  CD2       13.2910   10.0010   26.8450 C.ar   15  PHE15      -0.0042
      9  CE1       15.0770   12.1190   27.0520 C.ar   15  PHE15      -0.0003
     10  CE2       14.5300    9.9290   26.2090 C.ar   15  PHE15      -0.0003
     11  CZ        15.4240   10.9900   26.3110 C.ar   15  PHE15      -0.0000
     12  N          6.2910   11.7490   26.2830 N.3    17  THR17      -0.1203
     13  CA         5.3430   10.9630   25.4920 C.3    17  THR17       0.1994
     14  C          6.1320    9.7820   24.9370 C.2    17  THR17       0.2617
     15  O          7.3410    9.8800   24.7350 O.2    17  THR17      -0.2717
     16  CB         4.7200   11.7530   24.3120 C.3    17  THR17       0.1784
     17  OG1        5.7180   12.0140   23.3190 O.3    17  THR17      -0.2211
     18  CG2        4.1240   13.0680   24.8070 C.3    17  THR17       0.0376
     19  N          5.4560    8.6650   24.7030 N.am   18  VAL18      -0.1979
     20  CA         6.1240    7.4770   24.1890 C.3    18  VAL18       0.1595
     21  C          6.6870    7.6860   22.7820 C.2    18  VAL18       0.2287
     22  O          7.8430    7.3500   22.5190 O.2    18  VAL18      -0.2864
     23  CB         5.1700    6.2680   24.2050 C.3    18  VAL18       0.0276
     24  CG1        5.8940    5.0110   23.7160 C.3    18  VAL18       0.0022
     25  CG2        4.6410    6.0640   25.6240 C.3    18  VAL18       0.0022
     26  N         10.6510    7.2560   22.1920 N.3    22  GLU22      -0.1245
     27  CA        11.1690    6.2260   21.2990 C.3    22  GLU22       0.1567
     28  C         12.0410    6.8220   20.2000 C.2    22  GLU22       0.2260
     29  O         13.0980    6.2780   19.8730 O.2    22  GLU22      -0.2867
     30  CB        10.0120    5.4280   20.6850 C.3    22  GLU22       0.0388
     31  CG        10.4400    4.3800   19.6620 C.3    22  GLU22       0.1160
     32  CD         9.4320    3.2500   19.5390 C.2    22  GLU22       0.3649
     33  OE1        9.4840    2.3090   20.3660 O.co2  22  GLU22      -0.2457
     34  OE2        8.5780    3.3090   18.6280 O.co2  22  GLU22      -0.2457
     35  N          7.0650   -0.5720   15.0680 N.3    99  THR99      -0.1203
     36  CA         7.1260   -0.9660   16.4730 C.3    99  THR99       0.1994
     37  C          5.7520   -1.1820   17.0910 C.2    99  THR99       0.2617
     38  O          5.6480   -1.6590   18.2200 O.2    99  THR99      -0.2717
     39  CB         7.8780    0.0950   17.3190 C.3    99  THR99       0.1784
     40  OG1        7.1520    1.3320   17.3070 O.3    99  THR99      -0.2211
     41  CG2        9.2750    0.3370   16.7460 C.3    99  THR99       0.0376
     42  N          4.7000   -0.8110   16.3620 N.am  100  ALA100     -0.1979
     43  CA         3.3340   -0.9910   16.8470 C.3   100  ALA100      0.1597
     44  C          2.4710   -1.5070   15.6970 C.2   100  ALA100      0.2287
     45  O          2.2930   -0.8350   14.6830 O.2   100  ALA100     -0.2864
     46  CB         2.7850    0.3230   17.3870 C.3   100  ALA100      0.0319
     47  N         -0.6370   -1.6800   15.0690 N.3   102  ARG102     -0.1245
     48  CA        -1.7350   -0.8370   14.6060 C.3   102  ARG102      0.1563
     49  C         -1.2850    0.3880   13.8020 C.2   102  ARG102      0.2260
     50  O         -2.1230    1.1180   13.2840 O.2   102  ARG102     -0.2867
     51  CB        -2.5650   -0.3570   15.8060 C.3   102  ARG102      0.0307
     52  CG        -1.8380    0.6910   16.6600 C.3   102  ARG102      0.0489
     53  CD        -2.6600    1.1580   17.8630 C.3   102  ARG102      0.2205
     54  NE        -2.0240    2.2950   18.5310 N.pl3 102  ARG102     -0.0865
     55  CZ        -0.8820    2.2330   19.2140 C.cat 102  ARG102      0.5346
     56  NH1       -0.2360    1.0830   19.3400 N.pl3 102  ARG102      0.1354
     57  NH2       -0.3690    3.3340   19.7490 N.pl3 102  ARG102      0.1354
     58  N          9.5010   -5.0770   14.0510 N.3   137  GLN137     -0.1245
     59  CA         9.9530   -5.4370   15.3860 C.3   137  GLN137      0.1566
     60  C          9.5290   -6.8830   15.6470 C.2   137  GLN137      0.2260
     61  O         10.1080   -7.5710   16.4850 O.2   137  GLN137     -0.2867
     62  CB         9.3330   -4.4930   16.4270 C.3   137  GLN137      0.0367
     63  CG         9.8300   -4.7040   17.8610 C.3   137  GLN137      0.0905
     64  CD         9.4060   -3.5740   18.7860 C.2   137  GLN137      0.2608
     65  OE1        9.6600   -2.4000   18.4980 O.2   137  GLN137     -0.2717
     66  NE2        8.7630   -3.9200   19.9030 N.am  137  GLN137     -0.0878
     67  N         13.1110   -2.7930   19.8070 N.3   163  GLU163     -0.1245
     68  CA        12.8940   -2.4890   21.2150 C.3   163  GLU163      0.1567
     69  C         14.0440   -2.6710   22.2010 C.2   163  GLU163      0.2260
     70  O         13.9130   -2.3090   23.3680 O.2   163  GLU163     -0.2867
     71  CB        11.6350   -3.2240   21.7100 C.3   163  GLU163      0.0388
     72  CG        11.8120   -4.6440   22.2410 C.3   163  GLU163      0.1160
     73  CD        12.5110   -5.5780   21.2810 C.2   163  GLU163      0.3649
     74  OE1       12.2710   -5.4920   20.0550 O.co2 163  GLU163     -0.2457
     75  OE2       13.2900   -6.4250   21.7640 O.co2 163  GLU163     -0.2457
     76  N         16.6220   -1.0070   22.1970 N.3   165  TYR165     -0.1241
     77  CA        17.3520    0.2520   22.2750 C.3   165  TYR165      0.1605
     78  C         17.6630    0.7470   23.6830 C.2   165  TYR165      0.2264
     79  O         18.6920    1.3780   23.8970 O.2   165  TYR165     -0.2867
     80  CB        16.6610    1.3500   21.4460 C.3   165  TYR165      0.0534
     81  CG        15.2170    1.6700   21.7750 C.ar  165  TYR165     -0.0201
     82  CD1       14.8750    2.3680   22.9370 C.ar  165  TYR165     -0.0009
     83  CD2       14.1950    1.3250   20.8880 C.ar  165  TYR165     -0.0009
     84  CE1       13.5510    2.7230   23.2010 C.ar  165  TYR165      0.0417
     85  CE2       12.8710    1.6680   21.1430 C.ar  165  TYR165      0.0417
     86  CZ        12.5540    2.3700   22.2970 C.ar  165  TYR165      0.1957
     87  OH        11.2430    2.7260   22.5310 O.3   165  TYR165     -0.2866
     88  N          2.0540   -2.2870   36.6530 N.3   186  TYR186     -0.1227
     89  CA         2.0040   -2.3070   35.1920 C.3   186  TYR186      0.1736
     90  C          1.9310   -0.8670   34.7170 C.2   186  TYR186      0.2596
     91  O          1.0370   -0.1170   35.1130 O.2   186  TYR186     -0.2718
     92  CB         0.7760   -3.0710   34.6900 C.3   186  TYR186      0.0548
     93  CG         0.7020   -3.1970   33.1800 C.ar  186  TYR186     -0.0200
     94  CD1        1.3950   -4.2070   32.5050 C.ar  186  TYR186     -0.0009
     95  CD2       -0.0560   -2.3010   32.4210 C.ar  186  TYR186     -0.0009
     96  CE1        1.3330   -4.3240   31.1100 C.ar  186  TYR186      0.0417
     97  CE2       -0.1250   -2.4090   31.0230 C.ar  186  TYR186      0.0417
     98  CZ         0.5690   -3.4230   30.3770 C.ar  186  TYR186      0.1957
     99  OH         0.4800   -3.5510   29.0050 O.3   186  TYR186     -0.2866
    100  N          2.8860   -0.4790   33.8820 N.am  187  GLY187     -0.1942
    101  CA         2.9080    0.8770   33.3750 C.3   187  GLY187      0.2014
    102  C          2.6630    0.8840   31.8840 C.2   187  GLY187      0.2639
    103  O          3.4680    0.3620   31.1170 O.2   187  GLY187     -0.2714
    104  N          1.5440    1.4690   31.4690 N.am  188  GLY188     -0.1939
    105  CA         1.2380    1.5110   30.0540 C.3   188  GLY188      0.2014
    106  C         -0.0570    2.2370   29.7600 C.2   188  GLY188      0.2639
    107  O         -0.5040    3.0740   30.5460 O.2   188  GLY188     -0.2714
    108  N         -0.6640    1.9110   28.6240 N.am  189  SER189     -0.1949
    109  CA        -1.9020    2.5590   28.2320 C.3   189  SER189      0.1924
    110  C         -3.0010    1.5550   27.9220 C.2   189  SER189      0.2314
    111  O         -2.7460    0.3650   27.7410 O.2   189  SER189     -0.2863
    112  CB        -1.6540    3.4490   27.0130 C.3   189  SER189      0.2116
    113  OG        -1.1460    2.6870   25.9350 O.3   189  SER189     -0.2180
    114  N         -5.7920   -0.3070   25.7240 N.3   191  ARG191     -0.1245
    115  CA        -5.9290   -0.7200   24.3350 C.3   191  ARG191      0.1563
    116  C         -7.0620   -1.7370   24.3130 C.2   191  ARG191      0.2260
    117  O         -7.1480   -2.5950   25.1920 O.2   191  ARG191     -0.2867
    118  CB        -4.6420   -1.3560   23.8090 C.3   191  ARG191      0.0307
    119  CG        -4.7270   -1.7700   22.3410 C.3   191  ARG191      0.0489
    120  CD        -3.4900   -2.5520   21.9150 C.3   191  ARG191      0.2205
    121  NE        -2.2860   -1.7510   22.0860 N.pl3 191  ARG191     -0.0865
    122  CZ        -1.0590   -2.2480   22.1720 C.cat 191  ARG191      0.5346
    123  NH1       -0.8590   -3.5580   22.1010 N.pl3 191  ARG191      0.1354
    124  NH2       -0.0330   -1.4270   22.3440 N.pl3 191  ARG191      0.1354
    125  N         -5.7470   -7.1370   24.6230 N.3   195  ARG195     -0.1245
    126  CA        -4.9700   -6.4490   25.6500 C.3   195  ARG195      0.1563
    127  C         -5.9050   -6.0430   26.7890 C.2   195  ARG195      0.2260
    128  O         -5.5630   -6.1900   27.9640 O.2   195  ARG195     -0.2867
    129  CB        -4.2600   -5.2190   25.0600 C.3   195  ARG195      0.0307
    130  CG        -3.5130   -4.3390   26.0750 C.3   195  ARG195      0.0489
    131  CD        -2.4840   -5.1080   26.9120 C.3   195  ARG195      0.2205
    132  NE        -1.4710   -5.7780   26.0950 N.pl3 195  ARG195     -0.0865
    133  CZ        -0.4700   -5.1640   25.4690 C.cat 195  ARG195      0.5346
    134  NH1       -0.3200   -3.8470   25.5560 N.pl3 195  ARG195      0.1354
    135  NH2        0.3820   -5.8780   24.7470 N.pl3 195  ARG195      0.1354
    136  N          0.1550    2.3990   36.2860 N.3   213  PHE213     -0.1227
    137  CA         0.5080    3.7770   35.9680 C.3   213  PHE213      0.1736
    138  C          0.5470    3.9930   34.4580 C.2   213  PHE213      0.2596
    139  O          0.6770    3.0460   33.6870 O.2   213  PHE213     -0.2718
    140  CB         1.8440    4.1990   36.6170 C.3   213  PHE213      0.0547
    141  CG         3.0540    3.4210   36.1490 C.ar  213  PHE213     -0.0202
    142  CD1        3.3150    2.1430   36.6370 C.ar  213  PHE213     -0.0042
    143  CD2        3.9630    3.9960   35.2670 C.ar  213  PHE213     -0.0042
    144  CE1        4.4710    1.4480   36.2570 C.ar  213  PHE213     -0.0003
    145  CE2        5.1240    3.3090   34.8760 C.ar  213  PHE213     -0.0003
    146  CZ         5.3750    2.0330   35.3770 C.ar  213  PHE213     -0.0000
    147  N          0.4150    5.2470   34.0420 N.am  214  GLY214     -0.1942
    148  CA         0.4220    5.5590   32.6250 C.3   214  GLY214      0.2014
    149  C         -0.7870    6.3930   32.2490 C.2   214  GLY214      0.2638
    150  O         -1.2820    7.1720   33.0630 O.2   214  GLY214     -0.2714
    151  N         -1.2740    6.2260   31.0230 N.am  215  ASN215     -0.1972
    152  CA        -2.4280    6.9830   30.5510 C.3   215  ASN215      0.1688
    153  C         -3.7610    6.2820   30.7690 C.2   215  ASN215      0.2292
    154  O         -4.8160    6.8610   30.5180 O.2   215  ASN215     -0.2864
    155  CB        -2.2740    7.3040   29.0670 C.3   215  ASN215      0.1181
    156  CG        -1.1580    8.2830   28.8040 C.2   215  ASN215      0.2629
    157  OD1       -1.1570    9.3930   29.3370 O.2   215  ASN215     -0.2716
    158  ND2       -0.1980    7.8810   27.9780 N.am  215  ASN215     -0.0877
    159  N          0.8380    9.3440   34.3210 N.3   237  LYS237     -0.1231
    160  CA         1.9720    8.9840   33.4800 C.3   237  LYS237      0.1693
    161  C          3.2570    9.6070   34.0050 C.2   237  LYS237      0.2591
    162  O          3.2280   10.5940   34.7420 O.2   237  LYS237     -0.2718
    163  CB         1.7290    9.4620   32.0430 C.3   237  LYS237      0.0285
    164  CG         1.2520   10.9040   31.9680 C.3   237  LYS237      0.0035
    165  CD         1.0090   11.3870   30.5420 C.3   237  LYS237      0.0206
    166  CE         2.3070   11.7590   29.8460 C.3   237  LYS237      0.1093
    167  NZ         2.0650   12.5960   28.6370 N.3   237  LYS237     -0.1314
    168  N          4.3830    9.0150   33.6280 N.am  238  ILE238     -0.1980
    169  CA         5.6880    9.5170   34.0250 C.3   238  ILE238      0.1595
    170  C          6.5820    9.4670   32.7940 C.2   238  ILE238      0.2287
    171  O          6.2490    8.8090   31.8110 O.2   238  ILE238     -0.2864
    172  CB         6.3130    8.6610   35.1460 C.3   238  ILE238      0.0276
    173  CG1        6.5150    7.2210   34.6630 C.3   238  ILE238      0.0022
    174  CG2        5.4250    8.7060   36.3850 C.3   238  ILE238      0.0022
    175  CD1        7.3260    6.3580   35.6250 C.3   238  ILE238      0.0001
    176  N          9.2890    8.4050   30.1140 N.3   240  MET240     -0.1245
    177  CA         9.7010    7.0450   29.7690 C.3   240  MET240      0.1570
    178  C         11.0280    6.6320   30.3980 C.2   240  MET240      0.2261
    179  O         11.2390    5.4530   30.6750 O.2   240  MET240     -0.2867
    180  CB         9.8040    6.8450   28.2510 C.3   240  MET240      0.0387
    181  CG        10.2230    5.4030   27.9020 C.3   240  MET240      0.0595
    182  SD        10.6560    5.0510   26.1970 S.3   240  MET240     -0.1393
    183  CE         9.0330    4.7930   25.4950 C.3   240  MET240      0.0692
    184  N         10.6480    4.6750   33.8550 N.3   243  VAL243     -0.1245
    185  CA         9.7700    3.5130   33.9240 C.3   243  VAL243      0.1561
    186  C         10.3310    2.3470   34.7440 C.2   243  VAL243      0.2260
    187  O          9.6230    1.7860   35.5760 O.2   243  VAL243     -0.2867
    188  CB         9.3940    3.0260   32.4930 C.3   243  VAL243      0.0252
    189  CG1        8.7110    1.6680   32.5470 C.3   243  VAL243      0.0019
    190  CG2        8.4620    4.0440   31.8340 C.3   243  VAL243      0.0019
    191  N          0.8080   -9.9060   18.5700 N.3   261  TYR261     -0.1241
    192  CA         2.0600   -9.5970   19.2590 C.3   261  TYR261      0.1605
    193  C          2.6480  -10.8910   19.8240 C.2   261  TYR261      0.2264
    194  O          3.8690  -11.0960   19.8210 O.2   261  TYR261     -0.2867
    195  CB         1.8310   -8.6180   20.4170 C.3   261  TYR261      0.0534
    196  CG         1.7900   -7.1550   20.0180 C.ar  261  TYR261     -0.0201
    197  CD1        0.5940   -6.5390   19.6420 C.ar  261  TYR261     -0.0009
    198  CD2        2.9540   -6.3850   20.0220 C.ar  261  TYR261     -0.0009
    199  CE1        0.5620   -5.1890   19.2830 C.ar  261  TYR261      0.0417
    200  CE2        2.9340   -5.0420   19.6660 C.ar  261  TYR261      0.0417
    201  CZ         1.7380   -4.4490   19.2990 C.ar  261  TYR261      0.1957
    202  OH         1.7280   -3.1170   18.9540 O.3   261  TYR261     -0.2866
    203  N          6.3540  -10.4200   18.5830 N.3   265  PHE265     -0.1241
    204  CA         7.0460   -9.2240   19.0570 C.3   265  PHE265      0.1605
    205  C          7.5880   -9.4290   20.4620 C.2   265  PHE265      0.2264
    206  O          7.0500  -10.2090   21.2440 O.2   265  PHE265     -0.2867
    207  CB         6.0790   -8.0380   19.1930 C.3   265  PHE265      0.0534
    208  CG         5.9090   -7.2000   17.9530 C.ar  265  PHE265     -0.0203
    209  CD1        5.3810   -7.7380   16.7850 C.ar  265  PHE265     -0.0042
    210  CD2        6.2130   -5.8410   17.9860 C.ar  265  PHE265     -0.0042
    211  CE1        5.1530   -6.9270   15.6620 C.ar  265  PHE265     -0.0003
    212  CE2        5.9890   -5.0250   16.8740 C.ar  265  PHE265     -0.0003
    213  CZ         5.4560   -5.5750   15.7100 C.ar  265  PHE265     -0.0000
    214  N          8.3240   -6.7250   23.3410 N.3   267  THR267     -0.1203
    215  CA         8.0130   -5.3090   23.5040 C.3   267  THR267      0.1994
    216  C          8.9930   -4.6350   24.4540 C.2   267  THR267      0.2618
    217  O          9.6590   -5.3050   25.2410 O.2   267  THR267     -0.2717
    218  CB         6.5730   -5.1160   24.0180 C.3   267  THR267      0.1784
    219  OG1        6.4030   -5.8330   25.2480 O.3   267  THR267     -0.2211
    220  CG2        5.5680   -5.6470   22.9910 C.3   267  THR267      0.0376
    221  N          9.0860   -3.3120   24.3570 N.am  268  LEU268     -0.1965
    222  CA         9.9880   -2.5230   25.1880 C.3   268  LEU268      0.1728
    223  C          9.8460   -2.8800   26.6680 C.2   268  LEU268      0.2616
    224  O         10.8280   -2.9360   27.4070 O.2   268  LEU268     -0.2715
    225  CB         9.7000   -1.0310   24.9940 C.3   268  LEU268      0.0311
    226  CG        10.5510   -0.0640   25.8220 C.3   268  LEU268      0.0022
    227  CD1       12.0230   -0.2650   25.4780 C.3   268  LEU268      0.0001
    228  CD2       10.1310    1.3770   25.5450 C.3   268  LEU268      0.0001
    229  N          8.6010   -3.1030   27.0720 N.am  269  ARG269     -0.1977
    230  CA         8.2190   -3.4560   28.4330 C.3   269  ARG269      0.1597
    231  C          9.0080   -4.6430   28.9800 C.2   269  ARG269      0.2287
    232  O          9.3790   -4.6730   30.1560 O.2   269  ARG269     -0.2864
    233  CB         6.7210   -3.7720   28.4290 C.3   269  ARG269      0.0334
    234  CG         6.1480   -4.4120   29.6660 C.3   269  ARG269      0.0492
    235  CD         4.6780   -4.7280   29.4070 C.3   269  ARG269      0.2205
    236  NE         3.9940   -3.5630   28.8450 N.pl3 269  ARG269     -0.0865
    237  CZ         3.8220   -2.4150   29.4930 C.cat 269  ARG269      0.5346
    238  NH1        4.2760   -2.2800   30.7350 N.pl3 269  ARG269      0.1354
    239  NH2        3.2220   -1.3930   28.8950 N.pl3 269  ARG269      0.1354
    240  N         12.2940   -3.3180   30.0730 N.3   272  GLU272     -0.1245
    241  CA        12.1120   -2.3850   31.1860 C.3   272  GLU272      0.1567
    242  C         11.8080   -3.1430   32.4730 C.2   272  GLU272      0.2260
    243  O         12.2210   -2.7420   33.5600 O.2   272  GLU272     -0.2867
    244  CB        10.9580   -1.4180   30.9010 C.3   272  GLU272      0.0388
    245  CG        11.1340   -0.5550   29.6530 C.3   272  GLU272      0.1160
    246  CD         9.9260    0.3300   29.4000 C.2   272  GLU272      0.3649
    247  OE1        8.7970   -0.2070   29.3550 O.co2 272  GLU272     -0.2457
    248  OE2       10.1020    1.5590   29.2450 O.co2 272  GLU272     -0.2457
@<TRIPOS>BOND
     1    50    49    2
     2    49    48    1
     3    58    59    1
     4    48    47    1
     5    48    51    1
     6    45    44    2
     7    35    36    1
     8    59    60    1
     9    59    62    1
    10    60    61    2
    11   211   213   ar
    12   211   209   ar
    13    44    43    1
    14   213   212   ar
    15    51    52    1
    16    42    43    1
    17    42    37   am
    18    62    63    1
    19    36    37    1
    20    36    39    1
    21    52    53    1
    22    41    39    1
    23   209   208   ar
    24    43    46    1
    25   212   210   ar
    26    37    38    2
    27    40    39    1
    28    63    64    1
    29    53    54    1
    30   208   210   ar
    31   208   207    1
    32    65    64    2
    33    54    55    2
    34   191   192    1
    35   203   204    1
    36    34    32   ar
    37    64    66   am
    38   202   201    1
    39   204   207    1
    40   204   205    1
    41    55    56    1
    42    55    57    1
    43   192   193    1
    44   192   195    1
    45   199   201   ar
    46   199   197   ar
    47   201   200   ar
    48    32    31    1
    49    32    33   ar
    50   197   196   ar
    51    31    30    1
    52   200   198   ar
    53    67    68    1
    54   194   193    2
    55    29    28    2
    56   196   198   ar
    57   196   195    1
    58    74    73   ar
    59    28    27    1
    60   205   206    2
    61    30    27    1
    62    83    85   ar
    63    83    81   ar
    64    85    86   ar
    65    68    71    1
    66    68    69    1
    67    73    75   ar
    68    73    72    1
    69    27    26    1
    70    80    81    1
    71    80    77    1
    72    71    72    1
    73    81    82   ar
    74   120   121    1
    75   120   119    1
    76   121   122    2
    77   123   122    1
    78   122   124    1
    79    76    77    1
    80    69    70    2
    81    77    78    1
    82    86    87    1
    83    86    84   ar
    84   119   118    1
    85    22    21    2
    86    21    20    1
    87    82    84   ar
    88   220   218    1
    89    17    16    1
    90   214   215    1
    91   215   218    1
    92   215   216    1
    93    78    79    2
    94    24    23    1
    95   118   115    1
    96   218   219    1
    97    20    23    1
    98    20    19    1
    99    23    25    1
   100    16    18    1
   101    16    13    1
   102   116   115    1
   103   116   117    2
   104   115   114    1
   105   221   216   am
   106   221   222    1
   107   216   217    2
   108   125   126    1
   109    19    14   am
   110    15    14    2
   111   135   133    1
   112    14    13    1
   113   225   222    1
   114   225   226    1
   115   129   126    1
   116   129   130    1
   117   222   223    1
   118   133   134    1
   119   133   132    2
   120   227   226    1
   121    13    12    1
   122   183   182    1
   123   228   226    1
   124   126   127    1
   125   113   112    1
   126   130   131    1
   127   132   131    1
   128   182   181    1
   129    10    11   ar
   130    10     8   ar
   131    11     9   ar
   132   223   229   am
   133   223   224    2
   134   127   128    2
   135     8     6   ar
   136     1     2    1
   137   112   109    1
   138     9     7   ar
   139   229   230    1
   140     2     3    1
   141     2     5    1
   142     6     7   ar
   143     6     5    1
   144   111   110    2
   145     3     4    2
   146   181   180    1
   147   110   109    1
   148   158   156   am
   149   109   108    1
   150   180   177    1
   151   233   230    1
   152   233   234    1
   153   230   231    1
   154   108   106   am
   155   167   166    1
   156   156   155    1
   157   156   157    2
   158   236   235    1
   159   236   237    2
   160   239   237    1
   161   231   232    2
   162    99    98    1
   163   155   152    1
   164   248   246   ar
   165   247   246   ar
   166   246   245    1
   167   235   234    1
   168   237   238    1
   169   245   244    1
   170   106   105    1
   171   106   107    2
   172   177   176    1
   173   177   178    1
   174   166   165    1
   175   105   104    1
   176   240   241    1
   177    98    97   ar
   178    98    96   ar
   179   178   179    2
   180   154   153    2
   181   165   164    1
   182   152   153    1
   183   152   151    1
   184   244   241    1
   185   151   149   am
   186    97    95   ar
   187    96    94   ar
   188   103   102    2
   189   241   242    1
   190   104   102   am
   191   171   170    2
   192   190   188    1
   193   102   101    1
   194   164   163    1
   195   163   160    1
   196   149   148    1
   197   149   150    2
   198    95    93   ar
   199   242   243    2
   200   188   189    1
   201   188   185    1
   202    94    93   ar
   203   148   147    1
   204   170   169    1
   205    93    92    1
   206   101   100    1
   207   160   161    1
   208   160   159    1
   209   168   161   am
   210   168   169    1
   211   139   138    2
   212   184   185    1
   213   100    90   am
   214   185   186    1
   215   161   162    2
   216   169   172    1
   217   147   138   am
   218   138   137    1
   219   173   172    1
   220   173   175    1
   221    92    89    1
   222    90    91    2
   223    90    89    1
   224   186   187    2
   225   145   143   ar
   226   145   146   ar
   227   172   174    1
   228    89    88    1
   229   143   141   ar
   230   146   144   ar
   231   137   136    1
   232   137   140    1
   233   141   140    1
   234   141   142   ar
   235   144   142   ar
