@<TRIPOS>MOLECULE
tmp/1nzlB00.pdb
 165 158 0 0 0
SMALL
GASTEIGER

@<TRIPOS>ATOM
      1  N         24.0560   23.1250   11.3980 N.3    11  ARG11      -0.1245
      2  CA        22.7400   23.7230   11.5420 C.3    11  ARG11       0.1563
      3  C         21.7130   22.5930   11.5850 C.2    11  ARG11       0.2260
      4  O         20.8410   22.5670   12.4500 O.2    11  ARG11      -0.2867
      5  CB        22.4830   24.6550   10.3590 C.3    11  ARG11       0.0307
      6  CG        21.0840   25.2170   10.2490 C.3    11  ARG11       0.0489
      7  CD        21.1670   26.5660    9.5700 C.3    11  ARG11       0.2205
      8  NE        19.8700   27.0720    9.1630 N.pl3  11  ARG11      -0.0865
      9  CZ        19.6000   28.3600    8.9940 C.cat  11  ARG11       0.5346
     10  NH1       20.5380   29.2710    9.2120 N.pl3  11  ARG11       0.1354
     11  NH2       18.3960   28.7320    8.5880 N.pl3  11  ARG11       0.1354
     12  N         26.4380   27.8270   19.1030 N.3    31  ARG31      -0.1245
     13  CA        27.4030   27.0980   18.2930 C.3    31  ARG31       0.1563
     14  C         28.1200   28.0660   17.3700 C.2    31  ARG31       0.2260
     15  O         27.8050   29.2540   17.3350 O.2    31  ARG31      -0.2867
     16  CB        26.6700   26.0560   17.4350 C.3    31  ARG31       0.0307
     17  CG        25.6010   26.6620   16.5000 C.3    31  ARG31       0.0489
     18  CD        24.7650   25.5920   15.7930 C.3    31  ARG31       0.2205
     19  NE        23.6690   26.1630   15.0030 N.pl3  31  ARG31      -0.0865
     20  CZ        23.8050   26.6980   13.7910 C.cat  31  ARG31       0.5346
     21  NH1       24.9990   26.7440   13.2070 N.pl3  31  ARG31       0.1354
     22  NH2       22.7430   27.1860   13.1560 N.pl3  31  ARG31       0.1354
     23  N         29.0760   29.4860   13.5980 N.3    33  SER33      -0.1202
     24  CA        28.3080   29.6300   12.3590 C.3    33  SER33       0.2020
     25  C         29.0580   28.8790   11.2560 C.2    33  SER33       0.2619
     26  O         30.2700   29.0370   11.1210 O.2    33  SER33      -0.2717
     27  CB        28.1810   31.1090   11.9670 C.3    33  SER33       0.2103
     28  OG        27.5460   31.2550   10.7010 O.3    33  SER33      -0.2182
     29  N         28.3370   28.0700   10.4800 N.am   34  GLU34      -0.1965
     30  CA        28.9240   27.3040    9.3780 C.3    34  GLU34       0.1733
     31  C         29.1810   28.1740    8.1510 C.2    34  GLU34       0.2617
     32  O         30.1800   28.0040    7.4560 O.2    34  GLU34      -0.2715
     33  CB        27.9970   26.1750    8.9200 C.3    34  GLU34       0.0429
     34  CG        27.4770   25.2270    9.9640 C.3    34  GLU34       0.1163
     35  CD        26.7220   24.0750    9.3300 C.2    34  GLU34       0.3649
     36  OE1       27.3790   23.1760    8.7620 O.co2  34  GLU34      -0.2457
     37  OE2       25.4720   24.0730    9.3800 O.co2  34  GLU34      -0.2457
     38  N         28.2720   29.1070    7.8900 N.am   35  THR35      -0.1951
     39  CA        28.3620   29.9750    6.7160 C.3    35  THR35       0.1897
     40  C         29.1570   31.2660    6.8870 C.2    35  THR35       0.2313
     41  O         29.5890   31.8650    5.9090 O.2    35  THR35      -0.2863
     42  CB        26.9400   30.3080    6.2190 C.3    35  THR35       0.1794
     43  OG1       26.2270   31.0100    7.2450 O.3    35  THR35      -0.2208
     44  CG2       26.1960   29.0420    5.8920 C.3    35  THR35       0.0378
     45  N         26.2680   31.4180   16.6930 N.3    41  CYS41      -0.1235
     46  CA        24.8410   31.3540   16.4400 C.3    41  CYS41       0.1677
     47  C         24.0800   30.8910   17.6700 C.2    41  CYS41       0.2270
     48  O         24.5350   30.0070   18.3980 O.2    41  CYS41      -0.2867
     49  CB        24.5690   30.3820   15.2790 C.3    41  CYS41       0.0956
     50  SG        22.8210   30.0790   14.9190 S.3    41  CYS41      -0.0801
     51  N         14.7660   28.8980   15.2930 N.3    56  LYS56      -0.1231
     52  CA        15.2050   30.2100   14.8420 C.3    56  LYS56       0.1693
     53  C         16.7190   30.2380   15.0760 C.2    56  LYS56       0.2592
     54  O         17.1910   29.8230   16.1320 O.2    56  LYS56      -0.2718
     55  CB        14.5320   31.3190   15.6620 C.3    56  LYS56       0.0285
     56  CG        12.9980   31.3710   15.5670 C.3    56  LYS56       0.0035
     57  CD        12.5320   31.8400   14.2030 C.3    56  LYS56       0.0206
     58  CE        11.0710   32.3000   14.2240 C.3    56  LYS56       0.1093
     59  NZ        10.0690   31.2270   14.4870 N.3    56  LYS56      -0.1314
     60  N         17.4710   30.7020   14.0810 N.am   57  HIS57      -0.1962
     61  CA        18.9260   30.7880   14.1850 C.3    57  HIS57       0.1787
     62  C         19.3440   32.2540   14.1190 C.2    57  HIS57       0.2620
     63  O         19.1960   32.9060   13.0840 O.2    57  HIS57      -0.2715
     64  CB        19.5930   30.0170   13.0380 C.3    57  HIS57       0.0785
     65  CG        19.3030   28.5500   13.0420 C.ar   57  HIS57       0.0821
     66  ND1       19.9170   27.6720   13.9090 N.ar   57  HIS57      -0.2267
     67  CD2       18.4520   27.8070   12.2940 C.ar   57  HIS57       0.1154
     68  CE1       19.4590   26.4520   13.6940 C.ar   57  HIS57       0.1986
     69  NE2       18.5690   26.5060   12.7200 N.ar   57  HIS57      -0.2212
     70  N         19.8590   32.7640   15.2310 N.am   58  TYR58      -0.1960
     71  CA        20.3040   34.1440   15.3300 C.3    58  TYR58       0.1771
     72  C         21.8160   34.1810   15.2410 C.2    58  TYR58       0.2619
     73  O         22.5100   33.5320   16.0320 O.2    58  TYR58      -0.2715
     74  CB        19.8680   34.7530   16.6680 C.3    58  TYR58       0.0574
     75  CG        18.3730   34.8970   16.8220 C.ar   58  TYR58      -0.0198
     76  CD1       17.7030   35.9990   16.2940 C.ar   58  TYR58      -0.0009
     77  CD2       17.6250   33.9220   17.4820 C.ar   58  TYR58      -0.0009
     78  CE1       16.3200   36.1320   16.4200 C.ar   58  TYR58       0.0417
     79  CE2       16.2380   34.0410   17.6150 C.ar   58  TYR58       0.0417
     80  CZ        15.5950   35.1500   17.0810 C.ar   58  TYR58       0.1957
     81  OH        14.2330   35.2850   17.2100 O.3    58  TYR58      -0.2866
     82  N         22.3280   34.9380   14.2750 N.am   59  LYS59      -0.1977
     83  CA        23.7630   35.0570   14.1030 C.3    59  LYS59       0.1596
     84  C         24.3440   35.9660   15.1780 C.2    59  LYS59       0.2287
     85  O         23.8420   37.0680   15.4180 O.2    59  LYS59      -0.2864
     86  CB        24.1000   35.6130   12.7140 C.3    59  LYS59       0.0298
     87  CG        25.6080   35.6920   12.4310 C.3    59  LYS59       0.0038
     88  CD        25.9020   36.1310   11.0000 C.3    59  LYS59       0.0206
     89  CE        25.4210   35.0980    9.9930 C.3    59  LYS59       0.1093
     90  NZ        25.6850   35.5270    8.5940 N.3    59  LYS59      -0.1314
     91  N         27.5060   38.0450   16.1360 N.3    61  ARG61      -0.1245
     92  CA        28.7310   38.6150   15.5980 C.3    61  ARG61       0.1563
     93  C         29.6580   39.0500   16.7210 C.2    61  ARG61       0.2260
     94  O         29.2110   39.3520   17.8230 O.2    61  ARG61      -0.2867
     95  CB        28.4060   39.7970   14.6830 C.3    61  ARG61       0.0307
     96  CG        27.6270   39.3960   13.4400 C.3    61  ARG61       0.0489
     97  CD        27.3010   40.5940   12.5670 C.3    61  ARG61       0.2205
     98  NE        26.4800   40.2270   11.4150 N.pl3  61  ARG61      -0.0865
     99  CZ        26.9110   39.5330   10.3660 C.cat  61  ARG61       0.5346
    100  NH1       28.1710   39.1220   10.3030 N.pl3  61  ARG61       0.1354
    101  NH2       26.0730   39.2380    9.3800 N.pl3  61  ARG61       0.1354
    102  N         23.6770   40.2170   18.6710 N.3    70  ILE70      -0.1231
    103  CA        22.7770   39.6580   17.6700 C.3    70  ILE70       0.1692
    104  C         22.2210   40.9130   16.9990 C.2    70  ILE70       0.2592
    105  O         22.1010   40.9830   15.7790 O.2    70  ILE70      -0.2718
    106  CB        21.6480   38.8210   18.3180 C.3    70  ILE70       0.0266
    107  CG1       22.2470   37.5360   18.9030 C.3    70  ILE70       0.0019
    108  CG2       20.5750   38.4600   17.2780 C.3    70  ILE70       0.0020
    109  CD1       21.2650   36.6950   19.6890 C.3    70  ILE70       0.0001
    110  N         21.9040   41.9090   17.8190 N.am   71  THR71      -0.1953
    111  CA        21.4170   43.1890   17.3240 C.3    71  THR71       0.1897
    112  C         22.4410   44.2110   17.8440 C.2    71  THR71       0.2313
    113  O         22.8300   44.1570   19.0130 O.2    71  THR71      -0.2863
    114  CB        19.9730   43.4810   17.8420 C.3    71  THR71       0.1794
    115  OG1       19.4130   44.5690   17.1000 O.3    71  THR71      -0.2208
    116  CG2       19.9640   43.8220   19.3360 C.3    71  THR71       0.0378
    117  N         22.4710   47.2740   18.9300 N.3    73  ARG73      -0.1245
    118  CA        22.2120   48.1110   20.1050 C.3    73  ARG73       0.1563
    119  C         22.3700   47.3800   21.4370 C.2    73  ARG73       0.2260
    120  O         22.3680   48.0060   22.4980 O.2    73  ARG73      -0.2867
    121  CB        20.8120   48.7140   20.0180 C.3    73  ARG73       0.0307
    122  CG        19.8220   47.6340   19.6760 C.3    73  ARG73       0.0489
    123  CD        18.5520   48.3010   20.0000 C.3    73  ARG73       0.2205
    124  NE        17.3090   47.5140   20.0350 N.pl3  73  ARG73      -0.0865
    125  CZ        16.6520   47.3430   21.1810 C.cat  73  ARG73       0.5346
    126  NH1       17.2020   47.7780   22.3060 N.pl3  73  ARG73       0.1354
    127  NH2       15.4920   46.7020   21.2410 N.pl3  73  ARG73       0.1354
    128  N         19.1840   37.0600   27.3330 N.3    86  TYR86      -0.1241
    129  CA        17.9910   36.5490   26.6630 C.3    86  TYR86       0.1605
    130  C         17.2130   35.4870   27.4410 C.2    86  TYR86       0.2264
    131  O         16.1180   35.0770   27.0340 O.2    86  TYR86      -0.2867
    132  CB        18.3570   36.0710   25.2660 C.3    86  TYR86       0.0534
    133  CG        18.7000   37.2350   24.3700 C.ar   86  TYR86      -0.0201
    134  CD1       17.7250   38.1660   24.0090 C.ar   86  TYR86      -0.0009
    135  CD2       20.0090   37.4440   23.9300 C.ar   86  TYR86      -0.0009
    136  CE1       18.0440   39.2860   23.2330 C.ar   86  TYR86       0.0417
    137  CE2       20.3390   38.5540   23.1530 C.ar   86  TYR86       0.0417
    138  CZ        19.3510   39.4730   22.8110 C.ar   86  TYR86       0.1957
    139  OH        19.6700   40.5870   22.0620 O.3    86  TYR86      -0.2866
    140  N         13.2090   40.3840   24.6730 N.3    91  ASP91      -0.1225
    141  CA        13.6130   41.6930   24.1370 C.3    91  ASP91       0.1805
    142  C         13.8210   41.6870   22.6150 C.2    91  ASP91       0.2598
    143  O         14.8520   42.1340   22.1140 O.2    91  ASP91      -0.2718
    144  CB        14.8880   42.1700   24.8640 C.3    91  ASP91       0.1424
    145  CG        15.1180   43.6680   24.7390 C.2    91  ASP91       0.3668
    146  OD1       14.1230   44.4290   24.6920 O.co2  91  ASP91      -0.2456
    147  OD2       16.2960   44.0830   24.7010 O.co2  91  ASP91      -0.2456
    148  N         12.8430   41.1420   21.8970 N.am   92  GLY92      -0.1942
    149  CA        12.9330   41.0820   20.4500 C.3    92  GLY92       0.2014
    150  C         13.1790   39.6850   19.9090 C.2    92  GLY92       0.2639
    151  O         12.9420   39.4250   18.7270 O.2    92  GLY92      -0.2714
    152  N         13.6520   38.7790   20.7680 N.am   93  LEU93      -0.1963
    153  CA        13.9130   37.3950   20.3710 C.3    93  LEU93       0.1728
    154  C         12.5590   36.7020   20.2540 C.2    93  LEU93       0.2616
    155  O         11.5980   37.1230   20.8980 O.2    93  LEU93      -0.2715
    156  CB        14.7610   36.6860   21.4340 C.3    93  LEU93       0.0311
    157  CG        15.7990   35.6740   20.9460 C.3    93  LEU93       0.0022
    158  CD1       16.9040   36.4130   20.1990 C.3    93  LEU93       0.0001
    159  CD2       16.3930   34.9110   22.1330 C.3    93  LEU93       0.0001
    160  N         12.4800   35.6460   19.4440 N.am   94  CYS94      -0.1968
    161  CA        11.2280   34.9140   19.2360 C.3    94  CYS94       0.1712
    162  C         10.6160   34.3810   20.5340 C.2    94  CYS94       0.2296
    163  O          9.3940   34.3240   20.6820 O.2    94  CYS94      -0.2864
    164  CB        11.4590   33.7540   18.2620 C.3    94  CYS94       0.0983
    165  SG        12.6880   32.5320   18.8100 S.3    94  CYS94      -0.0798
@<TRIPOS>BOND
     1    44    42    1
     2    41    40    2
     3    42    39    1
     4    42    43    1
     5    39    40    1
     6    39    38    1
     7    32    31    2
     8    38    31   am
     9    31    30    1
    10    11     9    1
    11    90    89    1
    12    36    35   ar
    13    33    30    1
    14    33    34    1
    15     9     8    2
    16     9    10    1
    17     8     7    1
    18    35    37   ar
    19    35    34    1
    20    30    29    1
    21   101    99    1
    22     7     6    1
    23    89    88    1
    24     6     5    1
    25   100    99    1
    26     5     2    1
    27    99    98    2
    28    29    25   am
    29    28    27    1
    30    88    87    1
    31    26    25    2
    32    25    24    1
    33     1     2    1
    34    98    97    1
    35     2     3    1
    36     3     4    2
    37    27    24    1
    38    67    69   ar
    39    67    65   ar
    40    24    23    1
    41    87    86    1
    42    97    96    1
    43    86    83    1
    44    69    68   ar
    45    64    65    1
    46    64    61    1
    47    65    66   ar
    48    63    62    2
    49    22    20    1
    50    21    20    1
    51    96    95    1
    52    68    66   ar
    53    20    19    2
    54    60    61    1
    55    60    53   am
    56    83    82    1
    57    83    84    1
    58    62    61    1
    59    62    70   am
    60    57    58    1
    61    57    56    1
    62    58    59    1
    63    82    72   am
    64    95    92    1
    65    52    53    1
    66    52    51    1
    67    52    55    1
    68    50    49    1
    69    19    18    1
    70    53    54    2
    71    84    85    2
    72    70    71    1
    73    72    71    1
    74    72    73    2
    75    49    46    1
    76    71    74    1
    77    56    55    1
    78    92    91    1
    79    92    93    1
    80   105   104    2
    81    18    17    1
    82    76    78   ar
    83    76    75   ar
    84    78    80   ar
    85    46    45    1
    86    46    47    1
    87    17    16    1
    88    74    75    1
    89    93    94    2
    90    75    77   ar
    91   104   103    1
    92   104   110   am
    93    80    81    1
    94    80    79   ar
    95   115   114    1
    96   108   106    1
    97   111   110    1
    98   111   114    1
    99   111   112    1
   100    15    14    2
   101    14    13    1
   102    16    13    1
   103    77    79   ar
   104   103   106    1
   105   103   102    1
   106    47    48    2
   107   114   116    1
   108   112   113    2
   109   164   165    1
   110   164   161    1
   111    13    12    1
   112   106   107    1
   113   151   150    2
   114   107   109    1
   115   117   118    1
   116   161   160    1
   117   161   162    1
   118   160   154   am
   119   122   123    1
   120   122   121    1
   121   150   149    1
   122   150   152   am
   123   123   124    1
   124   121   118    1
   125   124   125    2
   126   118   119    1
   127   158   157    1
   128   154   153    1
   129   154   155    2
   130   153   152    1
   131   153   156    1
   132   149   148    1
   133   162   163    2
   134   157   156    1
   135   157   159    1
   136   125   127    1
   137   125   126    1
   138   119   120    2
   139   148   142   am
   140   139   138    1
   141   143   142    2
   142   142   141    1
   143   138   137   ar
   144   138   136   ar
   145   137   135   ar
   146   136   134   ar
   147   135   133   ar
   148   134   133   ar
   149   141   140    1
   150   141   144    1
   151   133   132    1
   152   146   145   ar
   153   147   145   ar
   154   145   144    1
   155   132   129    1
   156   129   128    1
   157   129   130    1
   158   131   130    2
