@<TRIPOS>MOLECULE
tmp/1nzqB00.pdb
 228 230 0 0 0
SMALL
GASTEIGER

@<TRIPOS>ATOM
      1  N         22.4790   27.1940   18.4880 N.3    43  HIS43      -0.1241
      2  CA        22.3540   25.8390   17.9580 C.3    43  HIS43       0.1621
      3  C         21.6430   25.7680   16.6270 C.2    43  HIS43       0.2264
      4  O         21.5750   24.6950   16.0260 O.2    43  HIS43      -0.2867
      5  CB        21.6810   24.8970   18.9690 C.3    43  HIS43       0.0745
      6  CG        20.2050   25.1060   19.1230 C.ar   43  HIS43       0.0817
      7  ND1       19.6590   25.8420   20.1540 N.ar   43  HIS43      -0.2268
      8  CD2       19.1610   24.6700   18.3790 C.ar   43  HIS43       0.1154
      9  CE1       18.3430   25.8490   20.0370 C.ar   43  HIS43       0.1986
     10  NE2       18.0160   25.1460   18.9690 N.ar   43  HIS43      -0.2212
     11  N         26.0660   23.1140   15.5520 N.3    47  TYR47      -0.1241
     12  CA        25.8040   21.9850   16.4410 C.3    47  TYR47       0.1605
     13  C         26.4170   20.7180   15.8740 C.2    47  TYR47       0.2264
     14  O         25.7250   19.9030   15.2550 O.2    47  TYR47      -0.2867
     15  CB        24.2990   21.7900   16.6360 C.3    47  TYR47       0.0534
     16  CG        23.9750   20.8660   17.7830 C.ar   47  TYR47      -0.0201
     17  CD1       24.3280   21.2020   19.0850 C.ar   47  TYR47      -0.0009
     18  CD2       23.3370   19.6480   17.5670 C.ar   47  TYR47      -0.0009
     19  CE1       24.0600   20.3550   20.1390 C.ar   47  TYR47       0.0417
     20  CE2       23.0650   18.7920   18.6180 C.ar   47  TYR47       0.0417
     21  CZ        23.4310   19.1490   19.9020 C.ar   47  TYR47       0.1957
     22  OH        23.1960   18.2940   20.9530 O.3    47  TYR47      -0.2866
     23  N         25.2090   17.0170   15.2870 N.3    50  TRP50      -0.1241
     24  CA        24.3480   16.7060   14.1470 C.3    50  TRP50       0.1605
     25  C         24.9540   17.2100   12.8630 C.2    50  TRP50       0.2264
     26  O         24.2540   17.3540   11.8620 O.2    50  TRP50      -0.2867
     27  CB        22.9600   17.3310   14.3170 C.3    50  TRP50       0.0550
     28  CG        22.1720   16.7890   15.4700 C.ar   50  TRP50       0.0003
     29  CD1       22.4180   15.6420   16.1660 C.ar   50  TRP50       0.0946
     30  CD2       20.9760   17.3490   16.0290 C.ar   50  TRP50       0.0152
     31  NE1       21.4490   15.4500   17.1230 N.ar   50  TRP50      -0.2442
     32  CE2       20.5510   16.4850   17.0590 C.ar   50  TRP50       0.0810
     33  CE3       20.2210   18.4960   15.7550 C.ar   50  TRP50       0.0012
     34  CZ2       19.4050   16.7320   17.8190 C.ar   50  TRP50       0.0191
     35  CZ3       19.0790   18.7390   16.5120 C.ar   50  TRP50       0.0001
     36  CH2       18.6840   17.8610   17.5310 C.ar   50  TRP50       0.0015
     37  N         28.1480   23.8410   23.2520 N.3    92  TRP92      -0.1227
     38  CA        27.3250   22.8490   22.5630 C.3    92  TRP92       0.1737
     39  C         27.6670   21.4460   23.0050 C.2    92  TRP92       0.2595
     40  O         26.9010   20.5140   22.7550 O.2    92  TRP92      -0.2718
     41  CB        27.5110   22.9490   21.0450 C.3    92  TRP92       0.0564
     42  CG        28.9510   22.9000   20.6020 C.ar   92  TRP92       0.0003
     43  CD1       29.7700   23.9700   20.3490 C.ar   92  TRP92       0.0946
     44  CD2       29.7500   21.7260   20.3850 C.ar   92  TRP92       0.0152
     45  NE1       31.0210   23.5330   19.9900 N.ar   92  TRP92      -0.2442
     46  CE2       31.0380   22.1620   20.0040 C.ar   92  TRP92       0.0810
     47  CE3       29.5010   20.3480   20.4780 C.ar   92  TRP92       0.0012
     48  CZ2       32.0750   21.2720   19.7160 C.ar   92  TRP92       0.0191
     49  CZ3       30.5310   19.4650   20.1910 C.ar   92  TRP92       0.0001
     50  CH2       31.8020   19.9310   19.8150 C.ar   92  TRP92       0.0015
     51  N         28.8150   21.2880   23.6570 N.am   93  ARG93      -0.1966
     52  CA        29.2540   19.9770   24.1240 C.3    93  ARG93       0.1729
     53  C         28.5020   19.4330   25.3000 C.2    93  ARG93       0.2616
     54  O         28.2410   18.2310   25.3510 O.2    93  ARG93      -0.2715
     55  CB        30.7390   20.0110   24.4860 C.3    93  ARG93       0.0348
     56  CG        31.6760   20.0310   23.3050 C.3    93  ARG93       0.0492
     57  CD        33.0980   20.3230   23.7440 C.3    93  ARG93       0.2205
     58  NE        34.0590   19.9740   22.7050 N.pl3  93  ARG93      -0.0865
     59  CZ        34.3340   18.7260   22.3310 C.cat  93  ARG93       0.5346
     60  NH1       33.7260   17.6950   22.9120 N.pl3  93  ARG93       0.1354
     61  NH2       35.2170   18.5080   21.3680 N.pl3  93  ARG93       0.1354
     62  N         28.1380   20.2930   26.2460 N.am   94  GLU94      -0.1963
     63  CA        27.4620   19.8210   27.4510 C.3    94  GLU94       0.1733
     64  C         26.0000   20.1430   27.6750 C.2    94  GLU94       0.2616
     65  O         25.1700   19.2320   27.7030 O.2    94  GLU94      -0.2715
     66  CB        28.2460   20.2910   28.6790 C.3    94  GLU94       0.0429
     67  CG        27.7360   19.7210   29.9890 C.3    94  GLU94       0.1163
     68  CD        28.3370   20.4090   31.2070 C.2    94  GLU94       0.3649
     69  OE1       28.0590   19.9460   32.3400 O.co2  94  GLU94      -0.2457
     70  OE2       29.0760   21.4100   31.0370 O.co2  94  GLU94      -0.2457
     71  N         25.6800   21.4260   27.8430 N.am   95  ASN95      -0.1958
     72  CA        24.3140   21.8470   28.1500 C.3    95  ASN95       0.1819
     73  C         23.7520   22.9940   27.3430 C.2    95  ASN95       0.2621
     74  O         22.7230   23.5550   27.7270 O.2    95  ASN95      -0.2715
     75  CB        24.2480   22.2130   29.6330 C.3    95  ASN95       0.1195
     76  CG        25.3260   23.2160   30.0300 C.2    95  ASN95       0.2630
     77  OD1       26.0780   23.6980   29.1830 O.2    95  ASN95      -0.2716
     78  ND2       25.4050   23.5320   31.3190 N.am   95  ASN95      -0.0877
     79  N         24.4060   23.3630   26.2470 N.am   96  LEU96      -0.1977
     80  CA        23.9200   24.4620   25.4150 C.3    96  LEU96       0.1596
     81  C         23.9580   25.7860   26.1600 C.2    96  LEU96       0.2287
     82  O         23.1570   26.6810   25.8890 O.2    96  LEU96      -0.2864
     83  CB        22.4920   24.1680   24.9370 C.3    96  LEU96       0.0297
     84  CG        22.2740   23.9150   23.4410 C.3    96  LEU96       0.0022
     85  CD1       23.4000   23.0610   22.8900 C.3    96  LEU96       0.0001
     86  CD2       20.9080   23.2400   23.2170 C.3    96  LEU96       0.0001
     87  N         20.4070   17.3150   33.0560 N.3   172  ILE172     -0.1245
     88  CA        21.2780   18.3120   32.4490 C.3   172  ILE172      0.1561
     89  C         21.6580   19.3840   33.4490 C.2   172  ILE172      0.2260
     90  O         20.8200   19.8420   34.2220 O.2   172  ILE172     -0.2867
     91  CB        20.5870   18.9640   31.2200 C.3   172  ILE172      0.0252
     92  CG1       20.4160   17.9190   30.1150 C.3   172  ILE172      0.0019
     93  CG2       21.3970   20.1520   30.7200 C.3   172  ILE172      0.0019
     94  CD1       21.7190   17.2330   29.7090 C.3   172  ILE172      0.0001
     95  N          3.9240   24.1610   25.3040 N.3   192  ASP192     -0.1225
     96  CA         5.3780   24.1100   25.2570 C.3   192  ASP192      0.1805
     97  C          5.8400   24.4190   23.8550 C.2   192  ASP192      0.2598
     98  O          5.0320   24.4650   22.9330 O.2   192  ASP192     -0.2718
     99  CB         5.8180   22.6840   25.6360 C.3   192  ASP192      0.1424
    100  CG         7.3160   22.5510   25.8700 C.2   192  ASP192      0.3668
    101  OD1        7.7750   21.3880   25.9850 O.co2 192  ASP192     -0.2456
    102  OD2        8.0300   23.5790   25.9600 O.co2 192  ASP192     -0.2456
    103  N          7.1380   24.6480   23.7000 N.am  193  ALA193     -0.1966
    104  CA         7.7360   24.8750   22.3960 C.3   193  ALA193      0.1728
    105  C          8.0940   23.4760   21.9550 C.2   193  ALA193      0.2616
    106  O          7.8930   22.5270   22.7120 O.2   193  ALA193     -0.2715
    107  CB         8.9980   25.7190   22.5290 C.3   193  ALA193      0.0334
    108  N          8.6370   23.3210   20.7600 N.am  194  CYS194     -0.1954
    109  CA         8.9910   21.9890   20.2940 C.3   194  CYS194      0.1843
    110  C          9.9930   22.1460   19.1760 C.2   194  CYS194      0.2625
    111  O         10.3150   23.2790   18.8100 O.2   194  CYS194     -0.2714
    112  CB         7.7170   21.2730   19.8120 C.3   194  CYS194      0.0997
    113  SG         7.8060   19.4500   19.6840 S.3   194  CYS194     -0.0797
    114  N         10.5110   21.0390   18.6500 N.am  195  GLU195     -0.1977
    115  CA        11.4670   21.1120   17.5490 C.3   195  GLU195      0.1602
    116  C         10.8840   22.0110   16.4830 C.2   195  GLU195      0.2287
    117  O          9.6920   21.9130   16.1880 O.2   195  GLU195     -0.2864
    118  CB        11.7230   19.7170   16.9630 C.3   195  GLU195      0.0415
    119  CG        12.6640   18.8080   17.7700 C.3   195  GLU195      0.1163
    120  CD        12.0800   18.3390   19.0920 C.2   195  GLU195      0.3649
    121  OE1       10.8600   18.0750   19.1510 O.co2 195  GLU195     -0.2457
    122  OE2       12.8480   18.2140   20.0700 O.co2 195  GLU195     -0.2457
    123  N         13.0090   26.5130   17.7910 N.3   198  SER198     -0.1217
    124  CA        14.3420   26.9770   18.1990 C.3   198  SER198      0.1889
    125  C         14.6670   28.3740   17.7500 C.2   198  SER198      0.2288
    126  O         14.3700   28.7330   16.6180 O.2   198  SER198     -0.2866
    127  CB        15.4250   26.0550   17.6370 C.3   198  SER198      0.2089
    128  OG        15.3170   24.7380   18.1260 O.3   198  SER198     -0.2183
    129  N         14.1330   30.3320   22.6270 N.3   218  VAL218     -0.1231
    130  CA        13.8750   28.8950   22.7270 C.3   218  VAL218      0.1692
    131  C         15.1990   28.1520   22.5790 C.2   218  VAL218      0.2593
    132  O         15.8220   28.1720   21.5110 O.2   218  VAL218     -0.2718
    133  CB        12.8620   28.4290   21.6360 C.3   218  VAL218      0.0266
    134  CG1       12.6210   26.9180   21.7360 C.3   218  VAL218      0.0020
    135  CG2       11.5410   29.1710   21.8070 C.3   218  VAL218      0.0020
    136  N         15.6470   27.5110   23.6540 N.am  219  SER219     -0.1938
    137  CA        16.9290   26.7990   23.6170 C.3   219  SER219      0.2055
    138  C         16.8120   25.2940   23.5800 C.2   219  SER219      0.2643
    139  O         17.2170   24.6690   22.6030 O.2   219  SER219     -0.2714
    140  CB        17.7930   27.2160   24.8150 C.3   219  SER219      0.2130
    141  OG        19.0220   26.5230   24.8120 O.3   219  SER219     -0.2179
    142  N         16.2730   24.6910   24.6290 N.am  220  TRP220     -0.1959
    143  CA        16.1490   23.2440   24.6260 C.3   220  TRP220      0.1771
    144  C         15.0720   22.7070   25.5100 C.2   220  TRP220      0.2620
    145  O         14.5150   23.4240   26.3390 O.2   220  TRP220     -0.2715
    146  CB        17.4880   22.5910   25.0100 C.3   220  TRP220      0.0590
    147  CG        17.9990   22.9730   26.3700 C.ar  220  TRP220      0.0006
    148  CD1       18.7350   24.0790   26.6910 C.ar  220  TRP220      0.0946
    149  CD2       17.8260   22.2390   27.5910 C.ar  220  TRP220      0.0152
    150  NE1       19.0340   24.0770   28.0310 N.ar  220  TRP220     -0.2442
    151  CE2       18.4910   22.9570   28.6060 C.ar  220  TRP220      0.0810
    152  CE3       17.1750   21.0440   27.9220 C.ar  220  TRP220      0.0012
    153  CZ2       18.5280   22.5170   29.9340 C.ar  220  TRP220      0.0191
    154  CZ3       17.2100   20.6070   29.2390 C.ar  220  TRP220      0.0001
    155  CH2       17.8830   21.3420   30.2270 C.ar  220  TRP220      0.0015
    156  N         14.7790   21.4270   25.3190 N.am  221  GLY221     -0.1940
    157  CA        13.7790   20.7460   26.1130 C.3   221  GLY221      0.2014
    158  C         14.0150   19.2500   26.0050 C.2   221  GLY221      0.2639
    159  O         14.9540   18.8080   25.3530 O.2   221  GLY221     -0.2714
    160  N         13.1740   18.4680   26.6650 N.am  222  GLU222     -0.1963
    161  CA        13.2710   17.0130   26.6230 C.3   222  GLU222      0.1733
    162  C         11.8630   16.5450   26.3690 C.2   222  GLU222      0.2617
    163  O         11.0620   16.4160   27.2990 O.2   222  GLU222     -0.2715
    164  CB        13.8100   16.4900   27.9540 C.3   222  GLU222      0.0429
    165  CG        15.1340   17.1460   28.3350 C.3   222  GLU222      0.1163
    166  CD        15.6560   16.7180   29.6950 C.2   222  GLU222      0.3649
    167  OE1       14.9770   16.9770   30.7100 O.co2 222  GLU222     -0.2457
    168  OE2       16.7510   16.1260   29.7430 O.co2 222  GLU222     -0.2457
    169  N         11.5580   16.2960   25.1000 N.am  223  GLY223     -0.1940
    170  CA        10.2120   15.9080   24.7260 C.3   223  GLY223      0.2014
    171  C          9.4340   17.2150   24.5820 C.2   223  GLY223      0.2639
    172  O          9.9840   18.2890   24.8420 O.2   223  GLY223     -0.2714
    173  N          8.1760   17.1420   24.1630 N.am  224  CYS224     -0.1967
    174  CA         7.3600   18.3460   24.0120 C.3   224  CYS224      0.1712
    175  C          6.0930   18.2480   24.8360 C.2   224  CYS224      0.2296
    176  O          5.3160   17.3040   24.6920 O.2   224  CYS224     -0.2864
    177  CB         7.0280   18.5840   22.5300 C.3   224  CYS224      0.0983
    178  SG         8.5040   18.8730   21.4950 S.3   224  CYS224     -0.0798
    179  N          5.5420   17.5000   28.0460 N.3   226  ARG226     -0.1245
    180  CA         5.4270   16.3030   28.8750 C.3   226  ARG226      0.1563
    181  C          5.2530   16.7450   30.3050 C.2   226  ARG226      0.2260
    182  O          5.8430   17.7450   30.7130 O.2   226  ARG226     -0.2867
    183  CB         6.6860   15.4450   28.7820 C.3   226  ARG226      0.0307
    184  CG         7.0100   14.8940   27.4070 C.3   226  ARG226      0.0489
    185  CD         8.2380   14.0000   27.5070 C.3   226  ARG226      0.2205
    186  NE         8.6870   13.4810   26.2190 N.pl3 226  ARG226     -0.0865
    187  CZ         9.8150   12.7960   26.0480 C.cat 226  ARG226      0.5346
    188  NH1       10.6070   12.5470   27.0840 N.pl3 226  ARG226      0.1354
    189  NH2       10.1620   12.3710   24.8400 N.pl3 226  ARG226      0.1354
    190  N         10.0000   20.9120   31.5520 N.3   230  TYR230     -0.1227
    191  CA         9.8430   22.3090   31.1680 C.3   230  TYR230      0.1736
    192  C         10.7590   22.7740   30.0580 C.2   230  TYR230      0.2596
    193  O         11.8460   22.2190   29.8560 O.2   230  TYR230     -0.2718
    194  CB        10.0490   23.2150   32.3860 C.3   230  TYR230      0.0548
    195  CG         9.2500   22.8110   33.6040 C.ar  230  TYR230     -0.0200
    196  CD1        9.7040   21.8120   34.4570 C.ar  230  TYR230     -0.0009
    197  CD2        8.0380   23.4170   33.8930 C.ar  230  TYR230     -0.0009
    198  CE1        8.9710   21.4320   35.5620 C.ar  230  TYR230      0.0417
    199  CE2        7.2960   23.0420   34.9960 C.ar  230  TYR230      0.0417
    200  CZ         7.7680   22.0500   35.8250 C.ar  230  TYR230      0.1957
    201  OH         7.0270   21.6740   36.9210 O.3   230  TYR230     -0.2866
    202  N         10.3210   23.8090   29.3440 N.am  231  GLY231     -0.1942
    203  CA        11.1220   24.3620   28.2740 C.3   231  GLY231      0.2014
    204  C         12.1950   25.2840   28.8300 C.2   231  GLY231      0.2639
    205  O         11.9380   26.0400   29.7680 O.2   231  GLY231     -0.2714
    206  N         13.4010   25.2100   28.2660 N.am  232  PHE232     -0.1959
    207  CA        14.5000   26.0630   28.7030 C.3   232  PHE232      0.1771
    208  C         14.8150   27.1420   27.7070 C.2   232  PHE232      0.2619
    209  O         14.8330   26.9140   26.4950 O.2   232  PHE232     -0.2715
    210  CB        15.7570   25.2360   28.9980 C.3   232  PHE232      0.0574
    211  CG        15.7030   24.5270   30.3130 C.ar  232  PHE232     -0.0200
    212  CD1       14.9080   23.4000   30.4790 C.ar  232  PHE232     -0.0042
    213  CD2       16.3980   25.0220   31.4060 C.ar  232  PHE232     -0.0042
    214  CE1       14.8030   22.7880   31.7110 C.ar  232  PHE232     -0.0003
    215  CE2       16.2990   24.4150   32.6380 C.ar  232  PHE232     -0.0003
    216  CZ        15.5000   23.2980   32.7920 C.ar  232  PHE232     -0.0000
    217  N         15.0770   28.3350   28.2220 N.am  233  TYR233     -0.1974
    218  CA        15.3530   29.4680   27.3690 C.3   233  TYR233      0.1639
    219  C         16.6080   30.1740   27.7560 C.2   233  TYR233      0.2290
    220  O         16.9690   30.2290   28.9300 O.2   233  TYR233     -0.2864
    221  CB        14.1820   30.4610   27.4280 C.3   233  TYR233      0.0560
    222  CG        12.8410   29.8540   27.0920 C.ar  233  TYR233     -0.0198
    223  CD1       12.1950   28.9950   27.9760 C.ar  233  TYR233     -0.0009
    224  CD2       12.2500   30.0900   25.8630 C.ar  233  TYR233     -0.0009
    225  CE1       10.9970   28.3810   27.6310 C.ar  233  TYR233      0.0417
    226  CE2       11.0610   29.4850   25.5150 C.ar  233  TYR233      0.0417
    227  CZ        10.4410   28.6280   26.3940 C.ar  233  TYR233      0.1957
    228  OH         9.2910   27.9890   25.9960 O.3   233  TYR233     -0.2866
@<TRIPOS>BOND
     1    26    25    2
     2    25    24    1
     3    24    27    1
     4    24    23    1
     5    27    28    1
     6    14    13    2
     7    28    30   ar
     8    28    29   ar
     9    11    12    1
    10    33    30   ar
    11    33    35   ar
    12    13    12    1
    13     4     3    2
    14    30    32   ar
    15    29    31   ar
    16   117   116    2
    17    12    15    1
    18   116   115    1
    19    35    36   ar
    20   126   125    2
    21     3     2    1
    22    15    16    1
    23   118   115    1
    24   118   119    1
    25    32    31   ar
    26    32    34   ar
    27    36    34   ar
    28   115   114    1
    29    18    16   ar
    30    18    20   ar
    31   127   128    1
    32   127   124    1
    33   125   124    1
    34   119   120    1
    35    16    17   ar
    36   123   124    1
    37     2     1    1
    38     2     5    1
    39     8    10   ar
    40     8     6   ar
    41    20    21   ar
    42   114   110   am
    43   111   110    2
    44     5     6    1
    45    10     9   ar
    46    17    19   ar
    47   120   121   ar
    48   120   122   ar
    49     6     7   ar
    50   110   109    1
    51   113   112    1
    52   113   178    1
    53    48    50   ar
    54    48    46   ar
    55   112   109    1
    56    50    49   ar
    57    21    19   ar
    58    21    22    1
    59    45    46   ar
    60    45    43   ar
    61    46    44   ar
    62     9     7   ar
    63    49    47   ar
    64   109   108    1
    65    43    42   ar
    66    44    47   ar
    67    44    42   ar
    68    42    41    1
    69   108   105   am
    70    41    38    1
    71    61    59    1
    72   178   177    1
    73   132   131    2
    74   133   134    1
    75   133   135    1
    76   133   130    1
    77   105   104    1
    78   105   106    2
    79    59    58    2
    80    59    60    1
    81   104   107    1
    82   104   103    1
    83   177   174    1
    84    38    39    1
    85    38    37    1
    86   131   130    1
    87   131   136   am
    88   139   138    2
    89   129   130    1
    90    58    57    1
    91    40    39    2
    92    85    84    1
    93    98    97    2
    94    39    51   am
    95    86    84    1
    96    56    57    1
    97    56    55    1
    98    84    83    1
    99   138   137    1
   100   138   142   am
   101   137   136    1
   102   137   140    1
   103    51    52    1
   104   103    97   am
   105    97    96    1
   106   174   173    1
   107   174   175    1
   108    52    55    1
   109    52    53    1
   110   173   171   am
   111   171   170    1
   112   171   172    2
   113   143   142    1
   114   143   146    1
   115   143   144    1
   116   176   175    2
   117   170   169    1
   118   141   140    1
   119   189   187    1
   120    83    80    1
   121   146   147    1
   122   169   162   am
   123    96    95    1
   124    96    99    1
   125    53    54    2
   126    53    62   am
   127   156   144   am
   128   156   157    1
   129   159   158    2
   130    80    81    1
   131    80    79    1
   132   144   145    2
   133   226   224   ar
   134   226   227   ar
   135    99   100    1
   136   224   222   ar
   137   100   102   ar
   138   100   101   ar
   139    82    81    2
   140   228   227    1
   141   158   157    1
   142   158   160   am
   143   187   186    2
   144   187   188    1
   145   186   185    1
   146    62    63    1
   147    79    73   am
   148   162   161    1
   149   162   163    2
   150   147   148   ar
   151   147   149   ar
   152   227   225   ar
   153   209   208    2
   154   161   160    1
   155   161   164    1
   156   148   150   ar
   157   222   221    1
   158   222   223   ar
   159    73    74    2
   160    73    72    1
   161   218   221    1
   162   218   219    1
   163   218   217    1
   164   184   185    1
   165   184   183    1
   166    63    64    1
   167    63    66    1
   168   149   152   ar
   169   149   151   ar
   170   225   223   ar
   171    64    65    2
   172    64    71   am
   173   208   217   am
   174   208   207    1
   175   219   220    2
   176    71    72    1
   177   152   154   ar
   178   164   165    1
   179   150   151   ar
   180   179   180    1
   181    72    75    1
   182   206   207    1
   183   206   204   am
   184   203   204    1
   185   203   202    1
   186   165   166    1
   187   151   153   ar
   188    66    67    1
   189   207   210    1
   190   183   180    1
   191   204   205    2
   192   180   181    1
   193   210   211    1
   194    77    76    2
   195   154   155   ar
   196   202   192   am
   197    75    76    1
   198   166   168   ar
   199   166   167   ar
   200    94    92    1
   201   193   192    2
   202   153   155   ar
   203    67    68    1
   204    76    78   am
   205   192   191    1
   206    92    91    1
   207   181   182    2
   208   211   212   ar
   209   211   213   ar
   210   212   214   ar
   211    93    91    1
   212    70    68   ar
   213   191   190    1
   214   191   194    1
   215    68    69   ar
   216    91    88    1
   217   213   215   ar
   218   214   216   ar
   219   194   195    1
   220    88    87    1
   221    88    89    1
   222   215   216   ar
   223    89    90    2
   224   195   197   ar
   225   195   196   ar
   226   197   199   ar
   227   196   198   ar
   228   199   200   ar
   229   198   200   ar
   230   200   201    1
