@<TRIPOS>MOLECULE
tmp/1nzyA00.pdb
 221 216 0 0 0
SMALL
GASTEIGER

@<TRIPOS>ATOM
      1  N         24.7870  107.5250   29.9090 N.3    22  ARG22      -0.1231
      2  CA        25.0450  108.8540   29.4020 C.3    22  ARG22       0.1694
      3  C         24.4190  109.9240   30.2620 C.2    22  ARG22       0.2592
      4  O         24.8810  111.0650   30.2240 O.2    22  ARG22      -0.2718
      5  CB        24.6220  109.0230   27.9570 C.3    22  ARG22       0.0321
      6  CG        23.1390  109.3850   27.7800 C.3    22  ARG22       0.0489
      7  CD        22.4230  108.3010   26.9860 C.3    22  ARG22       0.2205
      8  NE        21.0840  108.6080   26.5070 N.pl3  22  ARG22      -0.0865
      9  CZ        20.8420  109.5820   25.6410 C.cat  22  ARG22       0.5346
     10  NH1       21.8140  110.3710   25.1690 N.pl3  22  ARG22       0.1354
     11  NH2       19.5900  109.8030   25.2450 N.pl3  22  ARG22       0.1354
     12  N         23.3770  109.5330   31.0100 N.am   23  HIS23      -0.1962
     13  CA        22.6580  110.4260   31.8510 C.3    23  HIS23       0.1787
     14  C         22.7210  110.0260   33.2630 C.2    23  HIS23       0.2620
     15  O         21.7620  110.2360   34.0390 O.2    23  HIS23      -0.2715
     16  CB        21.2300  110.6770   31.3760 C.3    23  HIS23       0.0785
     17  CG        21.2250  111.5240   30.1620 C.ar   23  HIS23       0.0821
     18  ND1       20.2350  111.4080   29.1900 N.ar   23  HIS23      -0.2267
     19  CD2       22.0920  112.4930   29.7560 C.ar   23  HIS23       0.1154
     20  CE1       20.4990  112.3110   28.2340 C.ar   23  HIS23       0.1986
     21  NE2       21.6220  112.9780   28.5500 N.ar   23  HIS23      -0.2212
     22  N         23.8920  109.4380   33.5770 N.am   24  ARG24      -0.1977
     23  CA        24.2180  109.0190   34.9220 C.3    24  ARG24       0.1597
     24  C         23.2130  108.0100   35.5300 C.2    24  ARG24       0.2287
     25  O         22.9640  107.9880   36.7510 O.2    24  ARG24      -0.2864
     26  CB        24.3640  110.2550   35.8060 C.3    24  ARG24       0.0334
     27  CG        25.5530  111.1570   35.4210 C.3    24  ARG24       0.0492
     28  CD        26.8670  110.5770   35.9480 C.3    24  ARG24       0.2205
     29  NE        28.0160  111.4050   35.6170 N.pl3  24  ARG24      -0.0865
     30  CZ        28.5570  111.4480   34.4100 C.cat  24  ARG24       0.5346
     31  NH1       28.0700  110.6850   33.4040 N.pl3  24  ARG24       0.1354
     32  NH2       29.6070  112.2670   34.2210 N.pl3  24  ARG24       0.1354
     33  N         20.0510  107.9490   35.3430 N.3    26  ALA26      -0.1245
     34  CA        18.7990  108.4860   35.9020 C.3    26  ALA26       0.1562
     35  C         17.7230  107.4180   35.4330 C.2    26  ALA26       0.2260
     36  O         17.8830  106.7900   34.3710 O.2    26  ALA26      -0.2867
     37  CB        18.4090  109.7610   35.1700 C.3    26  ALA26       0.0290
     38  N         21.1640  108.3700   39.2260 N.3    62  ALA62      -0.1231
     39  CA        21.0440  109.7800   39.4670 C.3    62  ALA62       0.1694
     40  C         19.6570  110.2780   39.8180 C.2    62  ALA62       0.2593
     41  O         19.4480  111.4850   39.8640 O.2    62  ALA62      -0.2718
     42  CB        21.5460  110.5280   38.2370 C.3    62  ALA62       0.0304
     43  N         18.7120  109.3560   40.0330 N.am   63  GLY63      -0.1942
     44  CA        17.3470  109.7270   40.4440 C.3    63  GLY63       0.2014
     45  C         16.3890  110.0220   39.2920 C.2    63  GLY63       0.2639
     46  O         16.4470  109.4550   38.2120 O.2    63  GLY63      -0.2714
     47  N         15.4810  110.9450   39.5640 N.am   64  PHE64      -0.1959
     48  CA        14.5210  111.3260   38.5620 C.3    64  PHE64       0.1771
     49  C         15.1520  111.6250   37.2140 C.2    64  PHE64       0.2620
     50  O         16.2030  112.2540   37.0880 O.2    64  PHE64      -0.2715
     51  CB        13.7580  112.5840   39.0440 C.3    64  PHE64       0.0574
     52  CG        12.4210  112.7260   38.3690 C.ar   64  PHE64      -0.0200
     53  CD1       12.2980  113.3680   37.1340 C.ar   64  PHE64      -0.0042
     54  CD2       11.2920  112.1930   39.0020 C.ar   64  PHE64      -0.0042
     55  CE1       11.0450  113.5180   36.5370 C.ar   64  PHE64      -0.0003
     56  CE2       10.0320  112.3360   38.4170 C.ar   64  PHE64      -0.0003
     57  CZ         9.9260  112.9900   37.1890 C.ar   64  PHE64      -0.0000
     58  N         14.4860  111.1880   36.1640 N.am   65  TYR65      -0.1960
     59  CA        14.9830  111.4340   34.8380 C.3    65  TYR65       0.1771
     60  C         14.3850  112.7520   34.4000 C.2    65  TYR65       0.2619
     61  O         13.3240  112.8180   33.8300 O.2    65  TYR65      -0.2715
     62  CB        14.7140  110.2860   33.8640 C.3    65  TYR65       0.0574
     63  CG        15.4870  110.4680   32.6040 C.ar   65  TYR65      -0.0198
     64  CD1       16.7230  111.1320   32.5820 C.ar   65  TYR65      -0.0009
     65  CD2       14.9590  109.9850   31.4110 C.ar   65  TYR65      -0.0009
     66  CE1       17.4170  111.2650   31.3770 C.ar   65  TYR65       0.0417
     67  CE2       15.6460  110.1130   30.2040 C.ar   65  TYR65       0.0417
     68  CZ        16.8810  110.7620   30.1910 C.ar   65  TYR65       0.1957
     69  OH        17.5630  110.8890   28.9910 O.3    65  TYR65      -0.2866
     70  N         15.1320  113.8090   34.7250 N.am   66  LEU66      -0.1963
     71  CA        14.7960  115.2070   34.4770 C.3    66  LEU66       0.1728
     72  C         14.6620  115.6470   33.0320 C.2    66  LEU66       0.2616
     73  O         13.9930  116.6430   32.7110 O.2    66  LEU66      -0.2715
     74  CB        15.8090  116.1500   35.1840 C.3    66  LEU66       0.0311
     75  CG        15.9940  115.8380   36.6680 C.3    66  LEU66       0.0022
     76  CD1       17.2070  116.6170   37.1770 C.3    66  LEU66       0.0001
     77  CD2       14.7110  116.2910   37.4060 C.3    66  LEU66       0.0001
     78  N         15.3320  114.9290   32.1660 N.am   67  ARG67      -0.1977
     79  CA        15.2990  115.2420   30.7720 C.3    67  ARG67       0.1597
     80  C         14.0060  114.7400   30.0980 C.2    67  ARG67       0.2287
     81  O         13.7600  114.9940   28.9250 O.2    67  ARG67      -0.2864
     82  CB        16.5680  114.6940   30.1110 C.3    67  ARG67       0.0334
     83  CG        17.7950  115.5610   30.4470 C.3    67  ARG67       0.0492
     84  CD        19.0970  114.9270   29.9660 C.3    67  ARG67       0.2205
     85  NE        20.2950  115.7850   30.0980 N.pl3  67  ARG67      -0.0865
     86  CZ        20.5890  116.8180   29.3030 C.cat  67  ARG67       0.5346
     87  NH1       19.7700  117.1870   28.3190 N.pl3  67  ARG67       0.1354
     88  NH2       21.7090  117.5180   29.5080 N.pl3  67  ARG67       0.1354
     89  N          4.9000  114.4570   36.3310 N.3    82  PHE82      -0.1241
     90  CA         5.2670  114.0170   37.6550 C.3    82  PHE82       0.1605
     91  C          4.2580  113.0430   38.2720 C.2    82  PHE82       0.2264
     92  O          4.6240  112.1610   39.0560 O.2    82  PHE82      -0.2867
     93  CB         5.4900  115.2030   38.6280 C.3    82  PHE82       0.0534
     94  CG         6.9400  115.7080   38.5790 C.ar   82  PHE82      -0.0203
     95  CD1        7.3260  116.6190   37.6000 C.ar   82  PHE82      -0.0042
     96  CD2        7.9120  115.2410   39.4680 C.ar   82  PHE82      -0.0042
     97  CE1        8.6280  117.1080   37.5140 C.ar   82  PHE82      -0.0003
     98  CE2        9.2260  115.7000   39.3880 C.ar   82  PHE82      -0.0003
     99  CZ         9.5780  116.6290   38.4110 C.ar   82  PHE82      -0.0000
    100  N          5.6660  109.6260   39.3140 N.3    86  ALA86      -0.1245
    101  CA         5.5460  109.3680   40.7400 C.3    86  ALA86       0.1562
    102  C          4.8530  108.0330   41.0490 C.2    86  ALA86       0.2260
    103  O          5.1900  107.3290   41.9910 O.2    86  ALA86      -0.2867
    104  CB         4.9270  110.5480   41.4830 C.3    86  ALA86       0.0290
    105  N          7.5350  105.4170   40.1640 N.3    89  TRP89      -0.1227
    106  CA         8.6830  105.3640   41.0590 C.3    89  TRP89       0.1737
    107  C          8.3210  104.6240   42.3500 C.2    89  TRP89       0.2595
    108  O          9.0940  103.8680   42.9050 O.2    89  TRP89      -0.2718
    109  CB         9.1020  106.7850   41.5550 C.3    89  TRP89       0.0564
    110  CG        10.2600  107.3790   40.8140 C.ar   89  TRP89       0.0003
    111  CD1       10.2090  108.3010   39.8350 C.ar   89  TRP89       0.0946
    112  CD2       11.6330  107.0500   40.9840 C.ar   89  TRP89       0.0152
    113  NE1       11.4720  108.5850   39.3730 N.ar   89  TRP89      -0.2442
    114  CE2       12.3690  107.8310   40.0740 C.ar   89  TRP89       0.0810
    115  CE3       12.3070  106.1890   41.8490 C.ar   89  TRP89       0.0012
    116  CZ2       13.7910  107.7470   40.0060 C.ar   89  TRP89       0.0191
    117  CZ3       13.7130  106.1020   41.7950 C.ar   89  TRP89       0.0001
    118  CH2       14.4320  106.8600   40.8710 C.ar   89  TRP89       0.0015
    119  N          7.1070  104.8980   42.8820 N.am   90  HIS90      -0.1975
    120  CA         6.6460  104.2980   44.1360 C.3    90  HIS90       0.1656
    121  C          6.1650  102.8420   44.0080 C.2    90  HIS90       0.2291
    122  O          6.3290  102.0460   44.9180 O.2    90  HIS90      -0.2864
    123  CB         5.7590  105.2740   44.9500 C.3    90  HIS90       0.0771
    124  CG         6.5330  106.5460   45.2050 C.ar   90  HIS90       0.0820
    125  ND1        6.5240  107.5890   44.2950 N.ar   90  HIS90      -0.2267
    126  CD2        7.3720  106.8730   46.2290 C.ar   90  HIS90       0.1154
    127  CE1        7.3290  108.5340   44.8100 C.ar   90  HIS90       0.1986
    128  NE2        7.8500  108.1410   45.9750 N.ar   90  HIS90      -0.2212
    129  N         27.5830  107.0590   42.1320 N.3   110  VAL110     -0.1245
    130  CA        26.6910  107.9780   42.7470 C.3   110  VAL110      0.1561
    131  C         25.2280  107.4860   42.7130 C.2   110  VAL110      0.2260
    132  O         24.7390  106.9170   41.7360 O.2   110  VAL110     -0.2867
    133  CB        26.8090  109.3320   42.0680 C.3   110  VAL110      0.0252
    134  CG1       26.3680  109.1550   40.6210 C.3   110  VAL110      0.0019
    135  CG2       25.9380  110.3700   42.8010 C.3   110  VAL110      0.0019
    136  N         21.7920  109.4100   43.8190 N.3   112  ALA112     -0.1231
    137  CA        21.1790  110.6590   44.1750 C.3   112  ALA112      0.1694
    138  C         19.6450  110.5780   44.0580 C.2   112  ALA112      0.2593
    139  O         19.1000  109.9300   43.1320 O.2   112  ALA112     -0.2718
    140  CB        21.6250  111.6830   43.1100 C.3   112  ALA112      0.0304
    141  N         18.9820  111.2930   44.9660 N.am  113  GLY113     -0.1942
    142  CA        17.5260  111.3950   44.9630 C.3   113  GLY113      0.2014
    143  C         16.8950  110.0270   44.9310 C.2   113  GLY113      0.2639
    144  O         17.1820  109.2510   45.8440 O.2   113  GLY113     -0.2714
    145  N         16.0960  109.7520   43.8860 N.am  114  GLY114     -0.1954
    146  CA        15.4720  108.4320   43.8170 C.3   114  GLY114      0.1869
    147  C         16.4940  107.2790   43.8710 C.2   114  GLY114      0.2309
    148  O         16.1390  106.1550   44.3000 O.2   114  GLY114     -0.2863
    149  N         28.8900  107.6000   46.0730 N.3   132  LYS132     -0.1245
    150  CA        28.5810  108.7520   46.8970 C.3   132  LYS132      0.1565
    151  C         27.0780  108.8790   46.9800 C.2   132  LYS132      0.2260
    152  O         26.4250  108.3780   46.0990 O.2   132  LYS132     -0.2867
    153  CB        29.2580  110.0430   46.4920 C.3   132  LYS132      0.0317
    154  CG        28.8410  110.5790   45.1610 C.3   132  LYS132      0.0294
    155  CD        29.7400  111.7570   44.7520 C.2   132  LYS132     -0.0067
    156  CE        30.9730  111.3800   43.9230 C.2   132  LYS132      0.1012
    157  NZ        31.9720  112.4610   43.7450 N.pl3 132  LYS132     -0.1270
    158  N         23.6430  111.4190   47.8370 N.3   134  VAL134     -0.1245
    159  CA        23.1520  112.7780   48.0320 C.3   134  VAL134      0.1561
    160  C         21.6070  112.8200   47.8620 C.2   134  VAL134      0.2260
    161  O         21.0530  112.1280   46.9900 O.2   134  VAL134     -0.2867
    162  CB        23.8800  113.7730   47.1030 C.3   134  VAL134      0.0252
    163  CG1       23.6730  113.4220   45.6380 C.3   134  VAL134      0.0019
    164  CG2       23.4860  115.2610   47.3780 C.3   134  VAL134      0.0019
    165  N         19.6670  115.5860   47.0470 N.3   136  ALA136     -0.1231
    166  CA        19.4470  116.3270   45.7990 C.3   136  ALA136      0.1694
    167  C         18.0310  116.9470   45.5510 C.2   136  ALA136      0.2592
    168  O         17.8810  117.9120   44.8000 O.2   136  ALA136     -0.2718
    169  CB        19.8830  115.4490   44.6420 C.3   136  ALA136      0.0304
    170  N         16.9740  116.3950   46.1800 N.am  137  TRP137     -0.1976
    171  CA        15.5940  116.9030   46.0220 C.3   137  TRP137      0.1640
    172  C         15.5690  118.4340   46.0560 C.2   137  TRP137      0.2290
    173  O         15.1790  119.1120   45.1020 O.2   137  TRP137     -0.2864
    174  CB        14.6200  116.3740   47.1240 C.3   137  TRP137      0.0576
    175  CG        14.0750  115.0230   46.7270 C.ar  137  TRP137      0.0006
    176  CD1       13.0470  114.7790   45.8820 C.ar  137  TRP137      0.0946
    177  CD2       14.5760  113.7380   47.1440 C.ar  137  TRP137      0.0152
    178  NE1       12.8650  113.4220   45.7340 N.ar  137  TRP137     -0.2442
    179  CE2       13.7770  112.7530   46.5050 C.ar  137  TRP137      0.0810
    180  CE3       15.6210  113.3310   48.0100 C.ar  137  TRP137      0.0012
    181  CZ2       13.9980  111.3710   46.6860 C.ar  137  TRP137      0.0191
    182  CZ3       15.8520  111.9690   48.1720 C.ar  137  TRP137      0.0001
    183  CH2       15.0470  110.9920   47.5290 C.ar  137  TRP137      0.0015
    184  N         17.8560  120.6470   45.8980 N.3   139  THR139     -0.1203
    185  CA        18.4930  121.4260   44.8820 C.3   139  THR139      0.1994
    186  C         17.7310  121.5440   43.6060 C.2   139  THR139      0.2617
    187  O         17.7420  122.5330   42.8710 O.2   139  THR139     -0.2717
    188  CB        19.9910  121.1740   44.7260 C.3   139  THR139      0.1784
    189  OG1       20.2100  119.9460   44.0650 O.3   139  THR139     -0.2211
    190  CG2       20.6530  121.2740   46.1090 C.3   139  THR139      0.0376
    191  N         17.0280  120.5110   43.3230 N.am  140  ILE140     -0.1979
    192  CA        16.2730  120.5610   42.1130 C.3   140  ILE140      0.1595
    193  C         14.8980  121.2280   42.3860 C.2   140  ILE140      0.2287
    194  O         14.0590  121.5010   41.5200 O.2   140  ILE140     -0.2864
    195  CB        16.3410  119.1390   41.5110 C.3   140  ILE140      0.0276
    196  CG1       16.1310  119.0670   40.0210 C.3   140  ILE140      0.0022
    197  CG2       15.6050  118.0890   42.3580 C.3   140  ILE140      0.0022
    198  CD1       14.7670  119.5960   39.6290 C.3   140  ILE140      0.0001
    199  N         12.3450  120.0070   44.4400 N.3   142  ILE142     -0.1245
    200  CA        11.2240  119.0600   44.6210 C.3   142  ILE142      0.1561
    201  C         11.1420  118.5900   46.0490 C.2   142  ILE142      0.2260
    202  O         12.1690  118.4850   46.7390 O.2   142  ILE142     -0.2867
    203  CB        11.4570  117.8510   43.6770 C.3   142  ILE142      0.0252
    204  CG1       11.6840  118.2860   42.2420 C.3   142  ILE142      0.0019
    205  CG2       10.3480  116.7960   43.6830 C.3   142  ILE142      0.0019
    206  CD1       12.0920  117.1530   41.2940 C.3   142  ILE142      0.0001
    207  N         10.8270  112.2690   48.2390 N.3   145  ASP145     -0.1225
    208  CA         9.9190  111.1130   48.1850 C.3   145  ASP145      0.1805
    209  C         10.7510  109.8090   48.0660 C.2   145  ASP145      0.2598
    210  O         11.8040  109.6830   48.7130 O.2   145  ASP145     -0.2718
    211  CB         8.8690  111.2560   47.0560 C.3   145  ASP145      0.1424
    212  CG         9.5220  111.3550   45.7110 C.2   145  ASP145      0.3668
    213  OD1       10.7300  111.4990   45.5170 O.co2 145  ASP145     -0.2456
    214  OD2        8.6820  111.2610   44.7290 O.co2 145  ASP145     -0.2456
    215  N         10.2500  108.8730   47.2540 N.am  146  THR146     -0.1953
    216  CA        10.9050  107.5680   47.0530 C.3   146  THR146      0.1897
    217  C         11.1120  106.8790   48.3860 C.2   146  THR146      0.2313
    218  O         12.0660  106.1570   48.6480 O.2   146  THR146     -0.2863
    219  CB        12.1470  107.5820   46.1180 C.3   146  THR146      0.1794
    220  OG1       13.2150  108.2150   46.8280 O.3   146  THR146     -0.2208
    221  CG2       11.8690  108.2980   44.8070 C.3   146  THR146      0.0378
@<TRIPOS>BOND
     1    10     9    1
     2    11     9    1
     3     9     8    2
     4     8     7    1
     5     7     6    1
     6     6     5    1
     7     5     2    1
     8    20    21   ar
     9    20    18   ar
    10    87    86    1
    11    21    19   ar
    12    81    80    2
    13    69    68    1
    14    18    17   ar
    15    86    88    1
    16    86    85    2
    17     2     1    1
    18     2     3    1
    19    19    17   ar
    20    84    85    1
    21    84    83    1
    22    80    79    1
    23    82    83    1
    24    82    79    1
    25    17    16    1
    26    68    67   ar
    27    68    66   ar
    28    67    65   ar
    29     4     3    2
    30     3    12   am
    31    79    78    1
    32    12    13    1
    33    16    13    1
    34    66    64   ar
    35    65    63   ar
    36    13    14    1
    37    78    72   am
    38    64    63   ar
    39    63    62    1
    40    73    72    2
    41    72    71    1
    42    14    22   am
    43    14    15    2
    44    31    30    1
    45    22    23    1
    46    61    60    2
    47    62    59    1
    48    32    30    1
    49    36    35    2
    50    60    70   am
    51    60    59    1
    52    30    29    2
    53    71    70    1
    54    71    74    1
    55    59    58    1
    56    23    24    1
    57    23    26    1
    58    37    34    1
    59    74    75    1
    60    33    34    1
    61    27    26    1
    62    27    28    1
    63    35    34    1
    64    24    25    2
    65    29    28    1
    66    58    49   am
    67    89    90    1
    68    55    53   ar
    69    55    57   ar
    70    75    76    1
    71    75    77    1
    72    50    49    2
    73    53    52   ar
    74    57    56   ar
    75    49    48    1
    76    97    95   ar
    77    97    99   ar
    78    95    94   ar
    79    90    91    1
    80    90    93    1
    81    46    45    2
    82    42    39    1
    83    91    92    2
    84    52    54   ar
    85    52    51    1
    86    99    98   ar
    87    56    54   ar
    88    48    51    1
    89    48    47    1
    90    94    93    1
    91    94    96   ar
    92    38    39    1
    93    45    47   am
    94    45    44    1
    95   100   101    1
    96   113   111   ar
    97   113   114   ar
    98    98    96   ar
    99    39    40    1
   100   198   196    1
   101    40    41    2
   102    40    43   am
   103   111   110   ar
   104   116   114   ar
   105   116   118   ar
   106   196   195    1
   107    43    44    1
   108   114   112   ar
   109   105   106    1
   110   134   133    1
   111   101   102    1
   112   101   104    1
   113   110   112   ar
   114   110   109    1
   115   118   117   ar
   116   112   115   ar
   117   102   103    2
   118   106   109    1
   119   106   107    1
   120   206   204    1
   121   195   192    1
   122   195   197    1
   123   194   193    2
   124   132   131    2
   125   117   115   ar
   126   133   130    1
   127   133   135    1
   128   192   193    1
   129   192   191    1
   130   129   130    1
   131   204   203    1
   132   107   119   am
   133   107   108    2
   134   131   130    1
   135   187   186    2
   136   119   120    1
   137   140   137    1
   138   139   138    2
   139   191   186   am
   140   186   185    1
   141   203   205    1
   142   203   200    1
   143   157   156    1
   144   146   147    1
   145   146   145    1
   146   136   137    1
   147   147   148    2
   148   145   143   am
   149   156   155    2
   150   121   120    1
   151   121   122    2
   152   138   137    1
   153   138   141   am
   154   189   188    1
   155   120   123    1
   156   125   127   ar
   157   125   124   ar
   158   199   200    1
   159   200   201    1
   160   169   166    1
   161   188   185    1
   162   188   190    1
   163   214   212   ar
   164   155   154    1
   165   168   167    2
   166   221   219    1
   167   127   128   ar
   168   185   184    1
   169   143   142    1
   170   143   144    2
   171   123   124    1
   172   142   141    1
   173   173   172    2
   174   154   153    1
   175   124   126   ar
   176   213   212   ar
   177   167   166    1
   178   167   170   am
   179   163   162    1
   180   212   211    1
   181   178   176   ar
   182   178   179   ar
   183   166   165    1
   184   176   175   ar
   185   128   126   ar
   186   171   172    1
   187   171   170    1
   188   171   174    1
   189   201   202    2
   190   149   150    1
   191   152   151    2
   192   219   220    1
   193   219   216    1
   194   153   150    1
   195   179   181   ar
   196   179   177   ar
   197   181   183   ar
   198   175   174    1
   199   175   177   ar
   200   150   151    1
   201   161   160    2
   202   216   215    1
   203   216   217    1
   204   211   208    1
   205   162   164    1
   206   162   159    1
   207   177   180   ar
   208   215   209   am
   209   183   182   ar
   210   158   159    1
   211   160   159    1
   212   180   182   ar
   213   209   208    1
   214   209   210    2
   215   208   207    1
   216   217   218    2
