@<TRIPOS>MOLECULE
tmp/1o07B00.pdb
 181 168 0 0 0
SMALL
GASTEIGER

@<TRIPOS>ATOM
      1  N         76.8680    1.5630   29.5840 N.3    61  SER61      -0.1217
      2  CA        75.5860    2.0980   29.0730 C.3    61  SER61       0.1889
      3  C         74.6010    1.0810   28.4630 C.2    61  SER61       0.2288
      4  O         73.4330    1.3870   28.3210 O.2    61  SER61      -0.2866
      5  CB        75.7780    3.2510   28.0740 C.3    61  SER61       0.2089
      6  OG        76.2570    4.4370   28.6860 O.3    61  SER61      -0.2183
      7  N         71.4110    0.5540   30.4480 N.3    64  LYS64      -0.1245
      8  CA        70.2000    1.3210   30.0790 C.3    64  LYS64       0.1561
      9  C         69.0840    0.5600   29.4220 C.2    64  LYS64       0.2260
     10  O         67.9510    0.9380   29.5250 O.2    64  LYS64      -0.2867
     11  CB        70.5540    2.5850   29.2710 C.3    64  LYS64       0.0271
     12  CG        71.4640    3.5700   29.9430 C.3    64  LYS64       0.0035
     13  CD        71.9950    4.5890   28.9920 C.3    64  LYS64       0.0206
     14  CE        72.9220    5.4900   29.6980 C.3    64  LYS64       0.1093
     15  NZ        73.2810    6.7390   28.9400 N.3    64  LYS64      -0.1314
     16  N         75.6670   14.4700   31.0290 N.3   116  LEU116     -0.1231
     17  CA        76.0720   13.1190   30.6600 C.3   116  LEU116      0.1693
     18  C         76.2870   12.3010   31.9040 C.2   116  LEU116      0.2591
     19  O         75.7860   11.1920   32.0300 O.2   116  LEU116     -0.2718
     20  CB        77.3230   13.0920   29.7790 C.3   116  LEU116      0.0284
     21  CG        77.9340   11.7270   29.4040 C.3   116  LEU116      0.0019
     22  CD1       76.9410   10.8150   28.7190 C.3   116  LEU116      0.0001
     23  CD2       79.1390   11.9530   28.5000 C.3   116  LEU116      0.0001
     24  N         76.9390   12.9570   32.8510 N.am  117  LEU117     -0.1980
     25  CA        77.2750   12.3920   34.1290 C.3   117  LEU117      0.1596
     26  C         76.6150   13.2120   35.2460 C.2   117  LEU117      0.2287
     27  O         76.4760   14.4310   35.1350 O.2   117  LEU117     -0.2864
     28  CB        78.7960   12.4020   34.3130 C.3   117  LEU117      0.0297
     29  CG        79.6820   11.7400   33.2320 C.3   117  LEU117      0.0022
     30  CD1       81.1370   12.1370   33.4250 C.3   117  LEU117      0.0001
     31  CD2       79.5200   10.2220   33.3160 C.3   117  LEU117      0.0001
     32  N         80.6310   13.9280   40.1580 N.3   120  ASP120     -0.1239
     33  CA        81.2470   12.9270   41.0330 C.3   120  ASP120      0.1674
     34  C         81.0990   13.2300   42.5510 C.2   120  ASP120      0.2266
     35  O         81.0020   12.3100   43.3690 O.2   120  ASP120     -0.2867
     36  CB        82.7210   12.8030   40.6510 C.3   120  ASP120      0.1410
     37  CG        83.4120   11.6940   41.3630 C.2   120  ASP120      0.3668
     38  OD1       83.2840   10.5370   40.9030 O.co2 120  ASP120     -0.2456
     39  OD2       84.1090   11.8910   42.3880 O.co2 120  ASP120     -0.2456
     40  N         72.3280   12.4730   25.3050 N.3   147  GLU147     -0.1245
     41  CA        72.3470   11.1540   25.9070 C.3   147  GLU147      0.1567
     42  C         73.0370   11.3570   27.2450 C.2   147  GLU147      0.2260
     43  O         74.1020   11.9420   27.3010 O.2   147  GLU147     -0.2867
     44  CB        73.0970   10.1280   25.0470 C.3   147  GLU147      0.0388
     45  CG        72.8570    8.6750   25.4600 C.3   147  GLU147      0.1160
     46  CD        73.9820    7.6910   25.1260 C.2   147  GLU147      0.3649
     47  OE1       74.7900    7.9380   24.1900 O.co2 147  GLU147     -0.2457
     48  OE2       74.0260    6.6220   25.7930 O.co2 147  GLU147     -0.2457
     49  N         73.3610    9.9390   31.4490 N.3   149  ASN149     -0.1240
     50  CA        73.1430    9.0210   32.5650 C.3   149  ASN149      0.1653
     51  C         72.3320    9.6430   33.7020 C.2   149  ASN149      0.2266
     52  O         71.6580    8.9100   34.4220 O.2   149  ASN149     -0.2867
     53  CB        74.4670    8.4620   33.0890 C.3   149  ASN149      0.1155
     54  CG        75.1860    7.6360   32.0480 C.2   149  ASN149      0.2627
     55  OD1       74.7880    6.5340   31.7740 O.2   149  ASN149     -0.2716
     56  ND2       76.1840    8.2160   31.3960 N.am  149  ASN149     -0.0877
     57  N         92.6400   -0.2800   31.5580 N.3   201  ARG201     -0.1245
     58  CA        92.6480    1.1340   31.1800 C.3   201  ARG201      0.1563
     59  C         94.0860    1.5940   31.4140 C.2   201  ARG201      0.2260
     60  O         94.4840    1.7530   32.5710 O.2   201  ARG201     -0.2867
     61  CB        91.6770    1.9710   32.0230 C.3   201  ARG201      0.0307
     62  CG        91.5300    3.4390   31.5420 C.3   201  ARG201      0.0489
     63  CD        90.8040    4.3270   32.4940 C.3   201  ARG201      0.2205
     64  NE        90.8140    5.7180   32.0310 N.pl3 201  ARG201     -0.0865
     65  CZ        91.7870    6.6400   32.2390 C.cat 201  ARG201      0.5346
     66  NH1       92.9270    6.3710   32.9160 N.pl3 201  ARG201      0.1354
     67  NH2       91.6130    7.8820   31.7500 N.pl3 201  ARG201      0.1354
     68  N         87.8800   -1.7560   38.1040 N.3   207  HIS207     -0.1226
     69  CA        86.4420   -1.8970   38.1150 C.3   207  HIS207      0.1752
     70  C         85.7820   -0.5220   38.2440 C.2   207  HIS207      0.2596
     71  O         86.3460    0.3920   38.8210 O.2   207  HIS207     -0.2718
     72  CB        86.0090   -2.8340   39.2570 C.3   207  HIS207      0.0759
     73  CG        86.2520   -4.2970   38.9830 C.ar  207  HIS207      0.0818
     74  ND1       86.4430   -5.2150   39.9950 N.ar  207  HIS207     -0.2268
     75  CD2       86.2930   -5.0040   37.8220 C.ar  207  HIS207      0.1154
     76  CE1       86.5890   -6.4220   39.4710 C.ar  207  HIS207      0.1986
     77  NE2       86.5070   -6.3200   38.1560 N.ar  207  HIS207     -0.2212
     78  N         84.5790   -0.4160   37.7340 N.am  208  VAL208     -0.1966
     79  CA        83.7480    0.7820   37.7520 C.3   208  VAL208      0.1727
     80  C         83.6160    1.3270   39.1670 C.2   208  VAL208      0.2616
     81  O         83.4770    0.5370   40.1350 O.2   208  VAL208     -0.2715
     82  CB        82.3680    0.5340   37.0890 C.3   208  VAL208      0.0290
     83  CG1       81.5410   -0.5340   37.8390 C.3   208  VAL208      0.0023
     84  CG2       81.6060    1.8680   36.9120 C.3   208  VAL208      0.0023
     85  N         83.8240    2.6390   39.3140 N.am  209  SER209     -0.1950
     86  CA        83.7870    3.2880   40.6230 C.3   209  SER209      0.1924
     87  C         82.3110    3.5020   41.0020 C.2   209  SER209      0.2314
     88  O         81.4980    3.7120   40.1090 O.2   209  SER209     -0.2863
     89  CB        84.5380    4.6280   40.6200 C.3   209  SER209      0.2116
     90  OG        85.9330    4.4040   40.5260 O.3   209  SER209     -0.2180
     91  N         74.4610    2.6500   34.4380 N.3   218  TYR218     -0.1241
     92  CA        75.6410    1.9520   33.9610 C.3   218  TYR218      0.1605
     93  C         76.1520    0.8220   34.8330 C.2   218  TYR218      0.2264
     94  O         77.3020    0.3910   34.6310 O.2   218  TYR218     -0.2867
     95  CB        76.7580    2.9620   33.6620 C.3   218  TYR218      0.0534
     96  CG        77.1980    3.8140   34.8440 C.ar  218  TYR218     -0.0201
     97  CD1       78.1080    3.3620   35.7600 C.ar  218  TYR218     -0.0009
     98  CD2       76.6790    5.0910   35.0210 C.ar  218  TYR218     -0.0009
     99  CE1       78.4990    4.1310   36.8070 C.ar  218  TYR218      0.0417
    100  CE2       77.0920    5.8950   36.0610 C.ar  218  TYR218      0.0417
    101  CZ        77.9780    5.4050   36.9620 C.ar  218  TYR218      0.1957
    102  OH        78.4040    6.2060   38.0040 O.3   218  TYR218     -0.2866
    103  N         77.9170    6.1640   15.8910 N.3   284  SER284     -0.1217
    104  CA        78.3130    5.6090   17.1790 C.3   284  SER284      0.1889
    105  C         79.4730    6.3160   17.8490 C.2   284  SER284      0.2288
    106  O         79.6350    6.1530   19.0570 O.2   284  SER284     -0.2866
    107  CB        78.6330    4.1140   17.0860 C.3   284  SER284      0.2089
    108  OG        79.9050    3.8840   16.4840 O.3   284  SER284     -0.2183
    109  N         81.6160    9.0630   19.6590 N.3   286  ASN286     -0.1240
    110  CA        81.1900    9.8010   20.8570 C.3   286  ASN286      0.1653
    111  C         80.9960   11.2950   20.5960 C.2   286  ASN286      0.2266
    112  O         80.1970   11.9480   21.2580 O.2   286  ASN286     -0.2867
    113  CB        82.1760    9.5590   22.0320 C.3   286  ASN286      0.1155
    114  CG        83.4740   10.3870   21.9280 C.2   286  ASN286      0.2627
    115  OD1       84.2050   10.3170   20.9330 O.2   286  ASN286     -0.2716
    116  ND2       83.7790   11.1400   22.9840 N.am  286  ASN286     -0.0877
    117  N         77.3680   10.8280   19.0940 N.3   289  ALA289     -0.1231
    118  CA        76.3830   10.0790   19.8620 C.3   289  ALA289      0.1694
    119  C         76.1040   10.7990   21.2030 C.2   289  ALA289      0.2591
    120  O         74.9730   10.7220   21.6880 O.2   289  ALA289     -0.2718
    121  CB        76.8570    8.6300   20.0960 C.3   289  ALA289      0.0304
    122  N         77.1030   11.5000   21.7440 N.am  290  LEU290     -0.1980
    123  CA        76.9590   12.3860   22.9130 C.3   290  LEU290      0.1596
    124  C         77.0230   13.8980   22.5440 C.2   290  LEU290      0.2287
    125  O         77.7130   14.6850   23.2150 O.2   290  LEU290     -0.2864
    126  CB        78.1020   12.0390   23.8890 C.3   290  LEU290      0.0297
    127  CG        78.3370   10.5730   24.2480 C.3   290  LEU290      0.0022
    128  CD1       79.5940   10.4880   25.1420 C.3   290  LEU290      0.0001
    129  CD2       77.1390    9.9860   24.9050 C.3   290  LEU290      0.0001
    130  N         72.6010   -0.9580   21.2250 N.3   312  LYS312     -0.1231
    131  CA        73.0850   -0.0950   22.2780 C.3   312  LYS312      0.1693
    132  C         74.5910   -0.3620   22.4650 C.2   312  LYS312      0.2593
    133  O         75.0000   -1.5000   22.5830 O.2   312  LYS312     -0.2718
    134  CB        72.3410   -0.3100   23.5980 C.3   312  LYS312      0.0285
    135  CG        72.6380    0.7480   24.6600 C.3   312  LYS312      0.0035
    136  CD        72.2520    2.1760   24.2830 C.3   312  LYS312      0.0206
    137  CE        72.6440    3.1800   25.3180 C.3   312  LYS312      0.1093
    138  NZ        74.0480    3.6260   25.1000 N.3   312  LYS312     -0.1314
    139  N         75.3740    0.7110   22.5480 N.am  313  THR313     -0.1939
    140  CA        76.7940    0.6790   22.9730 C.3   313  THR313      0.2028
    141  C         76.8720    0.9210   24.4750 C.2   313  THR313      0.2643
    142  O         75.9860    1.4940   25.0790 O.2   313  THR313     -0.2714
    143  CB        77.6450    1.7640   22.2680 C.3   313  THR313      0.1808
    144  OG1       77.0710    3.0630   22.4830 O.3   313  THR313     -0.2208
    145  CG2       77.6840    1.5930   20.7330 C.3   313  THR313      0.0379
    146  N         77.9990    0.5500   25.0610 N.am  314  GLY314     -0.1939
    147  CA        78.2690    0.7900   26.4740 C.3   314  GLY314      0.2014
    148  C         79.7220    0.7570   26.8220 C.2   314  GLY314      0.2639
    149  O         80.4570    0.0490   26.2230 O.2   314  GLY314     -0.2714
    150  N         80.1800    1.6080   27.7030 N.am  315  ALA315     -0.1963
    151  CA        81.5300    1.5720   28.2020 C.3   315  ALA315      0.1728
    152  C         81.5840    1.9160   29.6690 C.2   315  ALA315      0.2617
    153  O         80.7130    2.5760   30.2100 O.2   315  ALA315     -0.2715
    154  CB        82.3610    2.5270   27.4490 C.3   315  ALA315      0.0334
    155  N         82.5700    1.3590   30.3240 N.am  316  THR316     -0.1937
    156  CA        83.1070    1.9170   31.5410 C.3   316  THR316      0.2028
    157  C         84.5640    2.2330   31.2660 C.2   316  THR316      0.2642
    158  O         85.0530    2.1200   30.1410 O.2   316  THR316     -0.2714
    159  CB        82.9160    0.9460   32.7070 C.3   316  THR316      0.1808
    160  OG1       83.6710   -0.2370   32.4740 O.3   316  THR316     -0.2208
    161  CG2       81.4580    0.4690   32.8290 C.3   316  THR316      0.0379
    162  N         85.2750    2.6970   32.2900 N.am  317  GLY317     -0.1954
    163  CA        86.7000    2.9190   32.2180 C.3   317  GLY317      0.1869
    164  C         87.4980    1.7650   31.6790 C.2   317  GLY317      0.2309
    165  O         88.3970    1.9820   30.9080 O.2   317  GLY317     -0.2863
    166  N         87.8660   -0.6190   27.0290 N.3   340  ASN340     -0.1240
    167  CA        87.1030    0.3870   26.3400 C.3   340  ASN340      0.1653
    168  C         87.8290    0.7970   25.0490 C.2   340  ASN340      0.2266
    169  O         88.8160    1.5390   25.0920 O.2   340  ASN340     -0.2867
    170  CB        86.9050    1.6110   27.2420 C.3   340  ASN340      0.1155
    171  CG        85.9800    2.6870   26.6320 C.2   340  ASN340      0.2627
    172  OD1       85.3350    2.5000   25.5930 O.2   340  ASN340     -0.2716
    173  ND2       85.8980    3.8160   27.3180 N.am  340  ASN340     -0.0877
    174  N         83.8530    3.0040   19.7170 N.3   343  ASN343     -0.1240
    175  CA        82.5160    2.5740   19.3290 C.3   343  ASN343      0.1653
    176  C         82.4220    2.2440   17.8480 C.2   343  ASN343      0.2266
    177  O         81.8670    1.2030   17.5690 O.2   343  ASN343     -0.2867
    178  CB        81.4390    3.6180   19.6360 C.3   343  ASN343      0.1155
    179  CG        81.0690    3.6900   21.1090 C.2   343  ASN343      0.2627
    180  OD1       81.2360    2.7270   21.8630 O.2   343  ASN343     -0.2716
    181  ND2       80.4860    4.8390   21.5170 N.am  343  ASN343     -0.0877
@<TRIPOS>BOND
     1   103   104    1
     2   108   107    1
     3   107   104    1
     4   104   105    1
     5   177   176    2
     6   176   175    1
     7   105   106    2
     8   117   118    1
     9   175   178    1
    10   175   174    1
    11   178   179    1
    12   109   110    1
    13   118   121    1
    14   118   119    1
    15   111   110    1
    16   111   112    2
    17   145   143    1
    18   110   113    1
    19   115   114    2
    20   179   181   am
    21   179   180    2
    22   119   120    2
    23   119   122   am
    24   130   131    1
    25   122   123    1
    26   114   113    1
    27   114   116   am
    28   143   144    1
    29   143   140    1
    30   131   132    1
    31   131   134    1
    32   132   139   am
    33   132   133    2
    34   124   123    1
    35   124   125    2
    36   139   140    1
    37   123   126    1
    38   140   141    1
    39   134   135    1
    40   126   127    1
    41    47    46   ar
    42   127   129    1
    43   127   128    1
    44   136   135    1
    45   136   137    1
    46   141   146   am
    47   141   142    2
    48    44    45    1
    49    44    41    1
    50   168   169    2
    51   168   167    1
    52   146   147    1
    53   138   137    1
    54    46    45    1
    55    46    48   ar
    56    40    41    1
    57   172   171    2
    58    41    42    1
    59   149   148    2
    60   167   166    1
    61   167   170    1
    62   147   148    1
    63   171   170    1
    64   171   173   am
    65   148   150   am
    66    42    43    2
    67   154   151    1
    68   150   151    1
    69     5     6    1
    70     5     2    1
    71   151   152    1
    72     4     3    2
    73     3     2    1
    74    23    21    1
    75    22    21    1
    76    15    14    1
    77    13    14    1
    78    13    12    1
    79     2     1    1
    80    11    12    1
    81    11     8    1
    82    21    20    1
    83     9    10    2
    84     9     8    1
    85   152   153    2
    86   152   155   am
    87    20    17    1
    88     8     7    1
    89   158   157    2
    90   155   156    1
    91    17    16    1
    92    17    18    1
    93   165   164    2
    94    58    59    1
    95    58    57    1
    96    58    61    1
    97   157   156    1
    98   157   162   am
    99    56    54   am
   100    59    60    2
   101    49    50    1
   102   156   159    1
   103    62    61    1
   104    62    63    1
   105   164   163    1
   106    67    65    1
   107    55    54    2
   108    18    19    2
   109    18    24   am
   110    64    65    2
   111    64    63    1
   112    54    53    1
   113   163   162    1
   114    65    66    1
   115   160   159    1
   116    50    53    1
   117    50    51    1
   118   159   161    1
   119    24    25    1
   120    29    31    1
   121    29    30    1
   122    29    28    1
   123    95    92    1
   124    95    96    1
   125    51    52    2
   126    92    91    1
   127    92    93    1
   128    25    28    1
   129    25    26    1
   130    94    93    2
   131    96    98   ar
   132    96    97   ar
   133    98   100   ar
   134    27    26    2
   135    97    99   ar
   136   100   101   ar
   137    99   101   ar
   138    84    82    1
   139   101   102    1
   140    82    79    1
   141    82    83    1
   142    78    79    1
   143    78    70   am
   144    79    80    1
   145    75    77   ar
   146    75    73   ar
   147    68    69    1
   148    69    70    1
   149    69    72    1
   150    77    76   ar
   151    70    71    2
   152    73    72    1
   153    73    74   ar
   154    80    85   am
   155    80    81    2
   156    85    86    1
   157    76    74   ar
   158    88    87    2
   159    32    33    1
   160    90    89    1
   161    89    86    1
   162    86    87    1
   163    36    33    1
   164    36    37    1
   165    38    37   ar
   166    33    34    1
   167    37    39   ar
   168    34    35    2
