@<TRIPOS>MOLECULE
tmp/1o08A00.pdb
 172 165 0 0 0
SMALL
GASTEIGER

@<TRIPOS>ATOM
      1  N         11.1200   30.6840   11.3680 N.3     8  ASP8       -0.1225
      2  CA        11.2180   29.2390   11.2510 C.3     8  ASP8        0.1805
      3  C         11.5320   28.9150    9.7840 C.2     8  ASP8        0.2598
      4  O         11.2410   29.7380    8.8820 O.2     8  ASP8       -0.2718
      5  CB         9.8730   28.6510   11.6960 C.3     8  ASP8        0.1424
      6  CG         9.8660   27.1240   11.6350 C.2     8  ASP8        0.3668
      7  OD1       10.8790   26.5530   12.1250 O.co2   8  ASP8       -0.2456
      8  OD2        8.8890   26.5710   11.1040 O.co2   8  ASP8       -0.2456
      9  N         12.0530   27.7260    9.5090 N.am    9  LEU9       -0.1966
     10  CA        12.2500   27.2940    8.1160 C.3     9  LEU9        0.1728
     11  C         11.1340   26.3630    7.6620 C.2     9  LEU9        0.2616
     12  O         10.3630   26.6700    6.7490 O.2     9  LEU9       -0.2715
     13  CB        13.6340   26.7260    7.8870 C.3     9  LEU9        0.0311
     14  CG        14.1240   26.6740    6.4430 C.3     9  LEU9        0.0022
     15  CD1       15.6070   26.4500    6.4160 C.3     9  LEU9        0.0001
     16  CD2       13.4570   25.5770    5.5890 C.3     9  LEU9        0.0001
     17  N         11.1010   25.1670    8.2240 N.am   10  ASP10      -0.1971
     18  CA        10.2540   24.0990    7.6660 C.3    10  ASP10       0.1709
     19  C          8.7990   24.4350    7.8430 C.2    10  ASP10       0.2293
     20  O          8.3360   24.6390    8.9570 O.2    10  ASP10      -0.2864
     21  CB        10.6090   22.7410    8.3090 C.3    10  ASP10       0.1436
     22  CG        12.0620   22.3880    8.2260 C.2    10  ASP10       0.3671
     23  OD1       12.6770   22.5100    7.1600 O.co2  10  ASP10      -0.2456
     24  OD2       12.6730   21.9890    9.2760 O.co2  10  ASP10      -0.2456
     25  N          8.2930   20.7930    5.9270 N.3    17  ALA17      -0.1245
     26  CA         7.5610   20.1010    6.9840 C.3    17  ALA17       0.1562
     27  C          6.9380   18.8330    6.4280 C.2    17  ALA17       0.2260
     28  O          6.8640   17.7880    7.1070 O.2    17  ALA17      -0.2867
     29  CB         6.4780   21.0060    7.5580 C.3    17  ALA17       0.0290
     30  N          9.6830   16.2040    6.4100 N.3    20  HIS20      -0.1241
     31  CA         9.9480   15.6670    7.7450 C.3    20  HIS20       0.1621
     32  C          8.8550   14.6910    8.1540 C.2    20  HIS20       0.2264
     33  O          9.1180   13.6290    8.7270 O.2    20  HIS20      -0.2867
     34  CB        10.0170   16.8240    8.7730 C.3    20  HIS20       0.0745
     35  CG        11.3450   17.5250    8.8060 C.ar   20  HIS20       0.0817
     36  ND1       12.5170   16.8990    9.1470 N.ar   20  HIS20      -0.2268
     37  CD2       11.6400   18.8350    8.5560 C.ar   20  HIS20       0.1154
     38  CE1       13.5010   17.7890    9.0970 C.ar   20  HIS20       0.1986
     39  NE2       12.9970   18.9860    8.7530 N.ar   20  HIS20      -0.2212
     40  N          9.5090   10.8330    9.0250 N.3    24  TRP24      -0.1241
     41  CA         9.2170   10.2820   10.3370 C.3    24  TRP24       0.1605
     42  C          8.1960    9.1710   10.2690 C.2    24  TRP24       0.2264
     43  O          8.3580    8.1910   11.0070 O.2    24  TRP24      -0.2867
     44  CB         8.7590   11.3740   11.3280 C.3    24  TRP24       0.0550
     45  CG         9.8940   12.1710   11.9200 C.ar   24  TRP24       0.0003
     46  CD1       10.0550   13.5110   11.8520 C.ar   24  TRP24       0.0946
     47  CD2       11.0000   11.6480   12.6850 C.ar   24  TRP24       0.0152
     48  NE1       11.2050   13.8930   12.5130 N.ar   24  TRP24      -0.2442
     49  CE2       11.8060   12.7530   13.0350 C.ar   24  TRP24       0.0810
     50  CE3       11.3970   10.3470   13.1060 C.ar   24  TRP24       0.0012
     51  CZ2       12.9890   12.6020   13.7860 C.ar   24  TRP24       0.0191
     52  CZ3       12.5470   10.2340   13.8270 C.ar   24  TRP24       0.0001
     53  CH2       13.3450   11.3300   14.1740 C.ar   24  TRP24       0.0015
     54  N          4.7890   16.8630   16.3730 N.3    44  LEU44      -0.1231
     55  CA         6.1750   16.7380   15.9480 C.3    44  LEU44       0.1693
     56  C          6.7030   17.9960   15.2490 C.2    44  LEU44       0.2592
     57  O          7.9290   18.1730   15.2370 O.2    44  LEU44      -0.2718
     58  CB         6.2900   15.5530   14.9760 C.3    44  LEU44       0.0284
     59  CG         5.8980   14.1710   15.5270 C.3    44  LEU44       0.0019
     60  CD1        6.1040   13.1470   14.4150 C.3    44  LEU44       0.0001
     61  CD2        6.7240   13.8440   16.7610 C.3    44  LEU44       0.0001
     62  N          5.8110   18.8220   14.6800 N.am   45  LYS45      -0.1966
     63  CA         6.3170   19.9850   13.9550 C.3    45  LYS45       0.1728
     64  C          7.1020   20.8860   14.9160 C.2    45  LYS45       0.2617
     65  O          6.6610   21.1790   16.0320 O.2    45  LYS45      -0.2715
     66  CB         5.1680   20.7650   13.3060 C.3    45  LYS45       0.0311
     67  CG         4.5920   20.0320   12.0790 C.3    45  LYS45       0.0038
     68  CD         3.4270   20.8390   11.4920 C.3    45  LYS45       0.0206
     69  CE         2.9660   20.1930   10.1730 C.3    45  LYS45       0.1093
     70  NZ         1.8000   20.9920    9.6660 N.3    45  LYS45      -0.1314
     71  N          8.2760   21.3720   14.4690 N.am   46  GLY46      -0.1940
     72  CA         9.0970   22.2540   15.2710 C.3    46  GLY46       0.2014
     73  C          9.9750   21.5910   16.3100 C.2    46  GLY46       0.2639
     74  O         10.8260   22.2520   16.8960 O.2    46  GLY46      -0.2714
     75  N          9.8070   20.2990   16.5960 N.am   47  VAL47      -0.1963
     76  CA        10.4770   19.5550   17.6460 C.3    47  VAL47       0.1727
     77  C         11.7770   18.9720   17.1360 C.2    47  VAL47       0.2617
     78  O         11.8500   18.5480   15.9570 O.2    47  VAL47      -0.2715
     79  CB         9.4740   18.4690   18.1360 C.3    47  VAL47       0.0290
     80  CG1       10.1340   17.4560   19.0200 C.3    47  VAL47       0.0023
     81  CG2        8.3070   19.1750   18.8120 C.3    47  VAL47       0.0023
     82  N         12.8220   18.9160   17.9720 N.am   48  SER48      -0.1936
     83  CA        14.1340   18.4820   17.5130 C.3    48  SER48       0.2055
     84  C         14.1080   17.0420   17.0040 C.2    48  SER48       0.2642
     85  O         13.1440   16.3160   17.2210 O.2    48  SER48      -0.2714
     86  CB        15.1630   18.5530   18.6300 C.3    48  SER48       0.2130
     87  OG        14.8920   17.5650   19.6290 O.3    48  SER48      -0.2179
     88  N         15.2000   16.6450   16.3520 N.am   49  ARG49      -0.1977
     89  CA        15.3030   15.2800   15.8490 C.3    49  ARG49       0.1597
     90  C         15.0900   14.2460   16.9530 C.2    49  ARG49       0.2287
     91  O         14.2740   13.3080   16.8340 O.2    49  ARG49      -0.2864
     92  CB        16.6560   15.0890   15.1450 C.3    49  ARG49       0.0334
     93  CG        16.7160   13.8400   14.2670 C.3    49  ARG49       0.0492
     94  CD        18.0850   13.6710   13.5860 C.3    49  ARG49       0.2205
     95  NE        18.4410   14.8820   12.8640 N.pl3  49  ARG49      -0.0865
     96  CZ        19.6920   15.1920   12.4790 C.cat  49  ARG49       0.5346
     97  NH1       20.7170   14.3880   12.6700 N.pl3  49  ARG49       0.1354
     98  NH2       19.8800   16.3620   11.8810 N.pl3  49  ARG49       0.1354
     99  N         11.6300   14.3800   18.5460 N.3    52  SER52      -0.1217
    100  CA        10.6780   13.7760   17.6320 C.3    52  SER52       0.1889
    101  C         10.6910   12.2560   17.7550 C.2    52  SER52       0.2288
    102  O          9.6190   11.6520   17.9020 O.2    52  SER52      -0.2866
    103  CB        10.9610   14.1780   16.1630 C.3    52  SER52       0.2089
    104  OG        10.7410   15.5590   15.9370 O.3    52  SER52      -0.2183
    105  N         16.5110    8.1500    9.8390 N.3    76  LYS76      -0.1231
    106  CA        15.5660    9.1760    9.4070 C.3    76  LYS76       0.1693
    107  C         16.2780   10.3580    8.7550 C.2    76  LYS76       0.2592
    108  O         15.8320   10.8680    7.7090 O.2    76  LYS76      -0.2718
    109  CB        14.6720    9.6310   10.5690 C.3    76  LYS76       0.0285
    110  CG        13.6730   10.7120   10.1390 C.3    76  LYS76       0.0035
    111  CD        14.1280   12.1320   10.4220 C.3    76  LYS76       0.0206
    112  CE        13.1790   13.1340    9.7640 C.3    76  LYS76       0.1093
    113  NZ        13.6660   14.5480   10.0190 N.3    76  LYS76      -0.1314
    114  N         17.3480   10.8400    9.3830 N.am   77  ASN77      -0.1974
    115  CA        18.0130   12.0150    8.8230 C.3    77  ASN77       0.1688
    116  C         18.6130   11.6990    7.4530 C.2    77  ASN77       0.2292
    117  O         18.5260   12.5280    6.5270 O.2    77  ASN77      -0.2864
    118  CB        19.1180   12.5530    9.7250 C.3    77  ASN77       0.1181
    119  CG        19.6830   13.8380    9.1760 C.2    77  ASN77       0.2629
    120  OD1       18.9880   14.8320    8.9230 O.2    77  ASN77      -0.2716
    121  ND2       20.9810   13.8550    8.9410 N.am   77  ASN77      -0.0877
    122  N         15.3660   28.1480   13.2360 N.3   114  SER114     -0.1202
    123  CA        14.9780   26.7840   12.9230 C.3   114  SER114      0.2020
    124  C         15.6280   25.7860   13.8640 C.2   114  SER114      0.2619
    125  O         16.8170   25.9300   14.2160 O.2   114  SER114     -0.2717
    126  CB        15.3900   26.5300   11.4530 C.3   114  SER114      0.2103
    127  OG        15.1370   25.1410   11.1030 O.3   114  SER114     -0.2182
    128  N         14.8540   24.7670   14.2710 N.am  115  ALA115     -0.1965
    129  CA        15.4460   23.6800   15.0500 C.3   115  ALA115      0.1728
    130  C         16.2350   22.7410   14.1460 C.2   115  ALA115      0.2617
    131  O         16.8730   21.8270   14.6810 O.2   115  ALA115     -0.2715
    132  CB        14.3440   22.9340   15.7780 C.3   115  ALA115      0.0334
    133  N         16.1890   22.9110   12.8090 N.am  116  SER116     -0.1936
    134  CA        16.8000   21.9200   11.9140 C.3   116  SER116      0.2055
    135  C         18.2800   22.1500   11.6540 C.2   116  SER116      0.2643
    136  O         18.6920   23.2290   11.2580 O.2   116  SER116     -0.2714
    137  CB        16.0780   21.9370   10.5610 C.3   116  SER116      0.2130
    138  OG        16.7070   21.0410    9.6540 O.3   116  SER116     -0.2179
    139  N         19.0670   21.0700   11.8370 N.am  117  LYS117     -0.1963
    140  CA        20.4840   21.1360   11.5110 C.3   117  LYS117      0.1728
    141  C         20.7090   21.1700    9.9920 C.2   117  LYS117      0.2616
    142  O         21.8180   21.4620    9.5400 O.2   117  LYS117     -0.2715
    143  CB        21.2150   19.9570   12.1840 C.3   117  LYS117      0.0311
    144  CG        21.2050   20.1140   13.7130 C.3   117  LYS117      0.0038
    145  CD        22.0660   19.0700   14.4250 C.3   117  LYS117      0.0206
    146  CE        21.9800   19.2550   15.9300 C.3   117  LYS117      0.1093
    147  NZ        22.5710   18.1080   16.6900 N.3   117  LYS117     -0.1314
    148  N         19.6340   20.8790    9.2520 N.am  118  ASN118     -0.1972
    149  CA        19.6960   20.9920    7.7870 C.3   118  ASN118      0.1688
    150  C         19.3010   22.3750    7.2760 C.2   118  ASN118      0.2292
    151  O         19.2400   22.5830    6.0590 O.2   118  ASN118     -0.2864
    152  CB        18.7960   19.8940    7.2010 C.3   118  ASN118      0.1181
    153  CG        19.3540   18.5030    7.4670 C.2   118  ASN118      0.2629
    154  OD1       20.4020   18.1900    6.8940 O.2   118  ASN118     -0.2716
    155  ND2       18.6470   17.6940    8.2480 N.am  118  ASN118     -0.0877
    156  N         12.8120   23.9200   20.9720 N.3   145  LYS145     -0.1245
    157  CA        11.3790   24.2300   20.9580 C.3   145  LYS145      0.1561
    158  C         10.5960   23.0990   21.6300 C.2   145  LYS145      0.2260
    159  O         10.8890   21.9010   21.4010 O.2   145  LYS145     -0.2867
    160  CB        10.8530   24.4730   19.5340 C.3   145  LYS145      0.0271
    161  CG        11.5840   25.5500   18.7520 C.3   145  LYS145      0.0035
    162  CD        11.1020   25.5860   17.2910 C.3   145  LYS145      0.0206
    163  CE        11.9070   26.6560   16.5560 C.3   145  LYS145      0.1093
    164  NZ        11.5200   26.7760   15.1150 N.3   145  LYS145     -0.1314
    165  N          4.8910   27.7410   11.8200 N.3   170  ASP170     -0.1239
    166  CA         3.8200   26.8760   11.3530 C.3   170  ASP170      0.1674
    167  C          3.4370   25.8370   12.4040 C.2   170  ASP170      0.2266
    168  O          2.5720   24.9990   12.0990 O.2   170  ASP170     -0.2867
    169  CB         4.2500   26.1290   10.0730 C.3   170  ASP170      0.1410
    170  CG         5.3440   25.0920   10.3270 C.2   170  ASP170      0.3668
    171  OD1        6.3080   25.4760   11.0320 O.co2 170  ASP170     -0.2456
    172  OD2        5.2400   23.9500    9.8010 O.co2 170  ASP170     -0.2456
@<TRIPOS>BOND
     1    16    14    1
     2    25    26    1
     3   151   150    2
     4    30    31    1
     5    15    14    1
     6    27    26    1
     7    27    28    2
     8    14    13    1
     9   117   116    2
    10    12    11    2
    11   154   153    2
    12    26    29    1
    13    23    22   ar
    14   152   153    1
    15   152   149    1
    16   150   149    1
    17   116   115    1
    18   153   155   am
    19    11    10    1
    20    11    17   am
    21    18    19    1
    22    18    17    1
    23    18    21    1
    24   108   107    2
    25    31    32    1
    26    31    34    1
    27   149   148    1
    28    19    20    2
    29    13    10    1
    30    10     9    1
    31    32    33    2
    32    22    21    1
    33    22    24   ar
    34    37    39   ar
    35    37    35   ar
    36    39    38   ar
    37   107   114   am
    38   107   106    1
    39    34    35    1
    40    35    36   ar
    41   115   114    1
    42   115   118    1
    43     4     3    2
    44   120   119    2
    45   121   119   am
    46    40    41    1
    47    38    36   ar
    48   119   118    1
    49   148   141   am
    50   106   105    1
    51   106   109    1
    52     9     3   am
    53   142   141    2
    54   138   137    1
    55    70    69    1
    56   112   113    1
    57   112   111    1
    58     3     2    1
    59   172   170   ar
    60   141   140    1
    61   169   170    1
    62   169   166    1
    63   110   111    1
    64   110   109    1
    65    69    68    1
    66    42    41    1
    67    42    43    2
    68   170   171   ar
    69    41    44    1
    70   137   134    1
    71   127   126    1
    72     8     6   ar
    73     2     1    1
    74     2     5    1
    75   136   135    2
    76    44    45    1
    77   166   165    1
    78   166   167    1
    79   126   123    1
    80    68    67    1
    81   140   139    1
    82   140   143    1
    83     6     5    1
    84     6     7   ar
    85   135   139   am
    86   135   134    1
    87    46    45   ar
    88    46    48   ar
    89    98    96    1
    90   134   133    1
    91    45    47   ar
    92    67    66    1
    93   168   167    2
    94   143   144    1
    95    96    97    1
    96    96    95    2
    97    48    49   ar
    98    47    49   ar
    99    47    50   ar
   100   133   130   am
   101    95    94    1
   102   123   122    1
   103   123   124    1
   104    49    51   ar
   105    50    52   ar
   106    66    63    1
   107    94    93    1
   108   144   145    1
   109    51    53   ar
   110    52    53   ar
   111   124   125    2
   112   124   128   am
   113    63    62    1
   114    63    64    1
   115   130   131    2
   116   130   129    1
   117    93    92    1
   118   128   129    1
   119    60    59    1
   120   145   146    1
   121    71    64   am
   122    71    72    1
   123    62    56   am
   124    64    65    2
   125    58    59    1
   126    58    55    1
   127   129   132    1
   128   164   163    1
   129    92    89    1
   130    57    56    2
   131    56    55    1
   132    72    73    1
   133    59    61    1
   134    89    88    1
   135    89    90    1
   136   146   147    1
   137   104   103    1
   138    55    54    1
   139    78    77    2
   140   103   100    1
   141    73    75   am
   142    73    74    2
   143    88    84   am
   144   163   162    1
   145    75    76    1
   146    91    90    2
   147    84    85    2
   148    84    83    1
   149    77    76    1
   150    77    82   am
   151   162   161    1
   152    83    82    1
   153    83    86    1
   154   100   101    1
   155   100    99    1
   156    76    79    1
   157   101   102    2
   158    79    81    1
   159    79    80    1
   160    86    87    1
   161   161   160    1
   162   160   157    1
   163   157   156    1
   164   157   158    1
   165   159   158    2
