@<TRIPOS>MOLECULE
tmp/1o0aA02.pdb
 183 180 0 0 0
SMALL
GASTEIGER

@<TRIPOS>ATOM
      1  N         11.6920   37.3430   -1.4730 N.3    79  TYR79      -0.1241
      2  CA        10.6960   38.0130   -0.6220 C.3    79  TYR79       0.1605
      3  C          9.7800   37.0010    0.0730 C.2    79  TYR79       0.2264
      4  O          9.3700   37.2500    1.1880 O.2    79  TYR79      -0.2867
      5  CB         9.8730   39.0480   -1.4200 C.3    79  TYR79       0.0534
      6  CG        10.8680   39.8410   -2.2570 C.ar   79  TYR79      -0.0201
      7  CD1       11.4490   40.9720   -1.6860 C.ar   79  TYR79      -0.0009
      8  CD2       11.2420   39.4810   -3.5230 C.ar   79  TYR79      -0.0009
      9  CE1       12.3570   41.7080   -2.4240 C.ar   79  TYR79       0.0417
     10  CE2       12.1540   40.1970   -4.2620 C.ar   79  TYR79       0.0417
     11  CZ        12.7150   41.3270   -3.6790 C.ar   79  TYR79       0.1957
     12  OH        13.6330   42.0460   -4.4050 O.3    79  TYR79      -0.2866
     13  N         12.1730   36.2060    3.1910 N.3    82  TRP82      -0.1241
     14  CA        12.2710   37.3250    4.1200 C.3    82  TRP82       0.1605
     15  C         10.9620   37.6410    4.8570 C.2    82  TRP82       0.2264
     16  O         10.9390   37.9740    6.0340 O.2    82  TRP82      -0.2867
     17  CB        12.7620   38.5770    3.3530 C.3    82  TRP82       0.0550
     18  CG        14.1030   38.3830    2.6900 C.ar   82  TRP82       0.0003
     19  CD1       15.0000   37.3950    3.0010 C.ar   82  TRP82       0.0946
     20  CD2       14.7160   39.1430    1.6420 C.ar   82  TRP82       0.0152
     21  NE1       16.1200   37.4980    2.2120 N.ar   82  TRP82      -0.2442
     22  CE2       15.9830   38.5610    1.3680 C.ar   82  TRP82       0.0810
     23  CE3       14.3290   40.2660    0.8960 C.ar   82  TRP82       0.0012
     24  CZ2       16.8420   39.0660    0.3970 C.ar   82  TRP82       0.0191
     25  CZ3       15.1900   40.7610   -0.0720 C.ar   82  TRP82       0.0001
     26  CH2       16.4380   40.1650   -0.3240 C.ar   82  TRP82       0.0015
     27  N         11.1270   34.9470    7.4900 N.3    85  THR85      -0.1203
     28  CA        12.3510   34.8320    8.2940 C.3    85  THR85       0.1994
     29  C         12.7600   36.1800    8.8710 C.2    85  THR85       0.2618
     30  O         13.3480   36.2460    9.9390 O.2    85  THR85      -0.2717
     31  CB        13.5510   34.3060    7.4880 C.3    85  THR85       0.1784
     32  OG1       13.8190   35.2190    6.4160 O.3    85  THR85      -0.2211
     33  CG2       13.2790   32.9520    6.8410 C.3    85  THR85       0.0376
     34  N         12.4910   37.2900    8.1520 N.am   86  THR86      -0.1952
     35  CA        12.9270   38.5310    8.8310 C.3    86  THR86       0.1897
     36  C         12.1040   38.7900   10.0780 C.2    86  THR86       0.2313
     37  O         12.6460   39.1380   11.1390 O.2    86  THR86      -0.2863
     38  CB        12.9550   39.7480    7.8930 C.3    86  THR86       0.1794
     39  OG1       11.8180   39.9080    7.0280 O.3    86  THR86      -0.2208
     40  CG2       14.1550   39.5800    6.9330 C.3    86  THR86       0.0378
     41  N         13.5650   36.5660   12.7380 N.3    89  LEU89      -0.1245
     42  CA        14.8210   37.0820   13.3210 C.3    89  LEU89       0.1561
     43  C         14.5000   38.2050   14.2840 C.2    89  LEU89       0.2260
     44  O         14.9700   38.2700   15.4170 O.2    89  LEU89      -0.2867
     45  CB        15.7910   37.5200   12.2310 C.3    89  LEU89       0.0270
     46  CG        16.3600   36.3900   11.3500 C.3    89  LEU89       0.0019
     47  CD1       16.6780   36.8570    9.9490 C.3    89  LEU89       0.0001
     48  CD2       17.5760   35.7600   12.0360 C.3    89  LEU89       0.0001
     49  N          8.0890   46.5060    5.0220 N.3   114  MET114     -0.1230
     50  CA         9.4240   46.5030    4.4060 C.3   114  MET114      0.1702
     51  C          9.5470   45.4630    3.3050 C.2   114  MET114      0.2592
     52  O          9.9110   45.6580    2.1610 O.2   114  MET114     -0.2718
     53  CB        10.4860   46.2670    5.4870 C.3   114  MET114      0.0401
     54  CG        11.9000   46.2810    4.8950 C.3   114  MET114      0.0596
     55  SD        13.1140   45.9640    6.1940 S.3   114  MET114     -0.1393
     56  CE        13.1790   44.1430    6.0350 C.3   114  MET114      0.0692
     57  N          9.1910   44.2290    3.6670 N.am  115  ILE115     -0.1980
     58  CA         9.3180   43.1810    2.6660 C.3   115  ILE115      0.1595
     59  C          8.2710   43.2650    1.5830 C.2   115  ILE115      0.2287
     60  O          8.4700   43.0860    0.4020 O.2   115  ILE115     -0.2864
     61  CB         9.1480   41.7730    3.3490 C.3   115  ILE115      0.0276
     62  CG1       10.0900   41.5850    4.5330 C.3   115  ILE115      0.0022
     63  CG2        9.2430   40.7800    2.2100 C.3   115  ILE115      0.0022
     64  CD1       11.5190   41.9650    4.1690 C.3   115  ILE115      0.0001
     65  N          9.2250   45.9180   -0.5970 N.3   118  GLY118     -0.1225
     66  CA        10.3770   45.3850   -1.3180 C.3   118  GLY118      0.1811
     67  C          9.9380   44.5990   -2.5240 C.2   118  GLY118      0.2280
     68  O         10.3750   44.6530   -3.6560 O.2   118  GLY118     -0.2866
     69  N         11.4300   51.1570   -3.1750 N.3   134  TRP134     -0.1241
     70  CA        12.6750   50.9540   -2.4140 C.3   134  TRP134      0.1605
     71  C         12.7400   51.9470   -1.2700 C.2   134  TRP134      0.2264
     72  O         13.0780   51.6510   -0.1280 O.2   134  TRP134     -0.2867
     73  CB        13.8800   51.0500   -3.3600 C.3   134  TRP134      0.0550
     74  CG        15.2110   50.9720   -2.6830 C.ar  134  TRP134      0.0003
     75  CD1       16.0080   49.8710   -2.5210 C.ar  134  TRP134      0.0946
     76  CD2       15.9220   52.0640   -2.0650 C.ar  134  TRP134      0.0152
     77  NE1       17.1700   50.2080   -1.8360 N.ar  134  TRP134     -0.2442
     78  CE2       17.1310   51.5560   -1.5480 C.ar  134  TRP134      0.0810
     79  CE3       15.6190   53.4240   -1.9130 C.ar  134  TRP134      0.0012
     80  CZ2       18.0390   52.3870   -0.8830 C.ar  134  TRP134      0.0191
     81  CZ3       16.5250   54.2460   -1.2520 C.ar  134  TRP134      0.0001
     82  CH2       17.7230   53.7160   -0.7470 C.ar  134  TRP134      0.0015
     83  N         10.3430   51.0620    1.5280 N.3   137  SER137     -0.1202
     84  CA        10.8720   49.8650    2.2260 C.3   137  SER137      0.2020
     85  C         12.0560   50.2600    3.0860 C.2   137  SER137      0.2619
     86  O         12.2970   49.8560    4.2200 O.2   137  SER137     -0.2717
     87  CB        11.2250   48.8290    1.1540 C.3   137  SER137      0.2103
     88  OG        11.9600   47.7200    1.6610 O.3   137  SER137     -0.2182
     89  N         12.8810   51.1710    2.5240 N.am  138  THR138     -0.1952
     90  CA        14.0440   51.5920    3.3450 C.3   138  THR138      0.1897
     91  C         13.5780   52.3150    4.5840 C.2   138  THR138      0.2313
     92  O         14.0560   52.1730    5.6990 O.2   138  THR138     -0.2863
     93  CB        15.0040   52.4510    2.4930 C.3   138  THR138      0.1794
     94  OG1       15.5370   51.6920    1.4000 O.3   138  THR138     -0.2208
     95  CG2       16.1970   52.8970    3.3310 C.3   138  THR138      0.0378
     96  N         12.6360   49.8990    7.1180 N.3   141  MET141     -0.1245
     97  CA        13.8420   49.2910    7.6840 C.3   141  MET141      0.1570
     98  C         14.4630   50.2680    8.6810 C.2   141  MET141      0.2261
     99  O         14.8130   49.9260    9.8040 O.2   141  MET141     -0.2867
    100  CB        14.8940   48.9010    6.6210 C.3   141  MET141      0.0387
    101  CG        16.0760   48.2800    7.4150 C.3   141  MET141      0.0595
    102  SD        17.5200   48.0720    6.3760 S.3   141  MET141     -0.1393
    103  CE        18.1780   49.7550    6.4430 C.3   141  MET141      0.0692
    104  N         21.6810   43.8690    7.7700 N.3   173  TRP173     -0.1241
    105  CA        20.4000   44.2780    7.1970 C.3   173  TRP173      0.1605
    106  C         20.5380   45.5610    6.3990 C.2   173  TRP173      0.2264
    107  O         19.9190   45.7080    5.3520 O.2   173  TRP173     -0.2867
    108  CB        19.3450   44.4800    8.2920 C.3   173  TRP173      0.0550
    109  CG        18.8440   43.2140    8.9050 C.ar  173  TRP173      0.0003
    110  CD1       19.5540   42.0990    9.2550 C.ar  173  TRP173      0.0946
    111  CD2       17.4790   42.9450    9.2420 C.ar  173  TRP173      0.0152
    112  NE1       18.7160   41.1420    9.7920 N.ar  173  TRP173     -0.2442
    113  CE2       17.4390   41.6480    9.7920 C.ar  173  TRP173      0.0810
    114  CE3       16.3000   43.6860    9.1270 C.ar  173  TRP173      0.0012
    115  CZ2       16.2400   41.0900   10.2220 C.ar  173  TRP173      0.0191
    116  CZ3       15.1140   43.1270    9.5570 C.ar  173  TRP173      0.0001
    117  CH2       15.1040   41.8350   10.1000 C.ar  173  TRP173      0.0015
    118  N         21.4260   45.0230    2.7400 N.3   176  TYR176     -0.1228
    119  CA        20.4510   44.5900    1.7400 C.3   176  TYR176      0.1721
    120  C         19.9030   45.6610    0.8180 C.2   176  TYR176      0.2437
    121  O         19.8960   45.5100   -0.3880 O.2   176  TYR176     -0.2733
    122  CB        19.2680   43.9200    2.4810 C.3   176  TYR176      0.0547
    123  CG        19.6310   42.5460    3.0160 C.ar  176  TYR176     -0.0200
    124  CD1       20.2880   42.3520    4.2210 C.ar  176  TYR176     -0.0009
    125  CD2       19.2950   41.4170    2.2650 C.ar  176  TYR176     -0.0009
    126  CE1       20.6080   41.0760    4.6880 C.ar  176  TYR176      0.0417
    127  CE2       19.6110   40.1470    2.7280 C.ar  176  TYR176      0.0417
    128  CZ        20.2640   39.9700    3.9260 C.ar  176  TYR176      0.1957
    129  OH        20.5670   38.6930    4.3720 O.3   176  TYR176     -0.2866
    130  N         19.4450   46.8160    1.3480 N.am  177  PRO177     -0.2729
    131  CA        18.9380   47.8570    0.4350 C.3   177  PRO177      0.1401
    132  C         19.9940   48.3910   -0.4960 C.2   177  PRO177      0.2269
    133  O         19.8140   48.7510   -1.6450 O.2   177  PRO177     -0.2865
    134  CB        18.4970   48.9830    1.3790 C.3   177  PRO177      0.0296
    135  CG        18.9500   48.6380    2.7440 C.3   177  PRO177      0.0237
    136  CD        19.3780   47.2060    2.7420 C.3   177  PRO177      0.0939
    137  N         20.3640   45.7830   -3.2970 N.3   180  TRP180     -0.1241
    138  CA        19.1650   45.9370   -4.1150 C.3   180  TRP180      0.1605
    139  C         19.3020   47.1830   -4.9930 C.2   180  TRP180      0.2264
    140  O         19.0800   47.1790   -6.2000 O.2   180  TRP180     -0.2867
    141  CB        17.9390   45.9660   -3.2220 C.3   180  TRP180      0.0550
    142  CG        16.6230   45.6890   -3.8710 C.ar  180  TRP180      0.0003
    143  CD1       15.8880   44.5310   -3.7930 C.ar  180  TRP180      0.0946
    144  CD2       15.8730   46.5850   -4.6960 C.ar  180  TRP180      0.0152
    145  NE1       14.7340   44.6570   -4.5230 N.ar  180  TRP180     -0.2442
    146  CE2       14.6940   45.9060   -5.0890 C.ar  180  TRP180      0.0810
    147  CE3       16.0630   47.8900   -5.1550 C.ar  180  TRP180      0.0012
    148  CZ2       13.7410   46.4990   -5.9010 C.ar  180  TRP180      0.0191
    149  CZ3       15.1080   48.4760   -5.9670 C.ar  180  TRP180      0.0001
    150  CH2       13.9530   47.7830   -6.3400 C.ar  180  TRP180      0.0015
    151  N         24.0680   38.5670   -1.6760 N.3   199  PHE199     -0.1241
    152  CA        22.8990   38.1530   -0.9020 C.3   199  PHE199      0.1605
    153  C         23.1600   36.7960   -0.2620 C.2   199  PHE199      0.2264
    154  O         22.7160   36.5360    0.8490 O.2   199  PHE199     -0.2867
    155  CB        21.6290   38.0830   -1.7510 C.3   199  PHE199      0.0534
    156  CG        20.8840   39.4160   -1.8710 C.ar  199  PHE199     -0.0203
    157  CD1       20.7050   40.2210   -0.7640 C.ar  199  PHE199     -0.0042
    158  CD2       20.3930   39.7810   -3.1040 C.ar  199  PHE199     -0.0042
    159  CE1       20.0090   41.4120   -0.9480 C.ar  199  PHE199     -0.0003
    160  CE2       19.6950   40.9640   -3.2980 C.ar  199  PHE199     -0.0003
    161  CZ        19.5150   41.7630   -2.1840 C.ar  199  PHE199     -0.0000
    162  N         22.7530   36.5320    3.6150 N.3   203  ASP203     -0.1239
    163  CA        21.7300   35.5850    4.0650 C.3   203  ASP203      0.1674
    164  C         22.2920   34.5460    5.0270 C.2   203  ASP203      0.2266
    165  O         21.7650   34.3210    6.1070 O.2   203  ASP203     -0.2867
    166  CB        21.0900   34.8410    2.8940 C.3   203  ASP203      0.1410
    167  CG        20.0340   35.6620    2.1820 C.2   203  ASP203      0.3668
    168  OD1       19.5500   36.5920    2.8730 O.co2 203  ASP203     -0.2456
    169  OD2       19.7380   35.3990    1.0180 O.co2 203  ASP203     -0.2456
    170  N         23.3610   36.3620    8.3020 N.3   206  ALA206     -0.1231
    171  CA        22.2590   36.8800    9.1000 C.3   206  ALA206      0.1694
    172  C         21.3900   35.7650    9.6500 C.2   206  ALA206      0.2591
    173  O         20.6570   35.9570   10.6310 O.2   206  ALA206     -0.2718
    174  CB        21.3780   37.8230    8.2720 C.3   206  ALA206      0.0304
    175  N         21.4610   34.5920    8.9990 N.am  207  LYS207     -0.1980
    176  CA        20.6050   33.5270    9.5560 C.3   207  LYS207      0.1596
    177  C         21.4840   32.4830   10.2260 C.2   207  LYS207      0.2287
    178  O         21.3960   32.2440   11.4300 O.2   207  LYS207     -0.2864
    179  CB        19.7190   32.9560    8.4600 C.3   207  LYS207      0.0298
    180  CG        18.8670   33.4690    7.2990 C.3   207  LYS207      0.0038
    181  CD        18.2620   33.2710    5.9090 C.3   207  LYS207      0.0206
    182  CE        17.2490   34.4170    5.8130 C.3   207  LYS207      0.1093
    183  NZ        17.5790   35.6640    5.0710 N.3   207  LYS207     -0.1314
@<TRIPOS>BOND
     1   150   149   ar
     2   150   148   ar
     3   140   139    2
     4   149   147   ar
     5   148   146   ar
     6   147   144   ar
     7   146   144   ar
     8   146   145   ar
     9   139   138    1
    10   144   142   ar
    11   145   143   ar
    12    12    11    1
    13    10    11   ar
    14    10     8   ar
    15   138   137    1
    16   138   141    1
    17   142   143   ar
    18   142   141    1
    19    11     9   ar
    20    68    67    2
    21     8     6   ar
    22    73    74    1
    23    73    70    1
    24   160   158   ar
    25   160   161   ar
    26    69    70    1
    27   158   156   ar
    28    74    75   ar
    29    74    76   ar
    30    67    66    1
    31    75    77   ar
    32     9     7   ar
    33    70    71    1
    34     6     7   ar
    35     6     5    1
    36   161   159   ar
    37    76    79   ar
    38    76    78   ar
    39    79    81   ar
    40   156   155    1
    41   156   157   ar
    42    77    78   ar
    43   155   152    1
    44   151   152    1
    45   133   132    2
    46    78    80   ar
    47     1     2    1
    48     5     2    1
    49    66    65    1
    50    71    72    2
    51    81    82   ar
    52   159   157   ar
    53   152   153    1
    54    80    82   ar
    55     2     3    1
    56   132   131    1
    57   121   120    2
    58    26    25   ar
    59    26    24   ar
    60   153   154    2
    61    25    23   ar
    62     3     4    2
    63    24    22   ar
    64    60    59    2
    65   131   130    1
    66   131   134    1
    67   120   130   am
    68   120   119    1
    69    23    20   ar
    70   169   167   ar
    71    87    88    1
    72    87    84    1
    73   130   136    1
    74    22    20   ar
    75    22    21   ar
    76   134   135    1
    77    94    93    1
    78    83    84    1
    79    59    58    1
    80    20    18   ar
    81   119   122    1
    82   119   118    1
    83    52    51    2
    84   167   168   ar
    85   167   166    1
    86    63    61    1
    87    21    19   ar
    88    84    85    1
    89   125   127   ar
    90   125   123   ar
    91   122   123    1
    92    93    95    1
    93    93    90    1
    94    89    85   am
    95    89    90    1
    96    58    61    1
    97    58    57    1
    98    18    19   ar
    99    18    17    1
   100   127   128   ar
   101   136   135    1
   102   166   163    1
   103   123   124   ar
   104    85    86    2
   105    13    14    1
   106    51    57   am
   107    51    50    1
   108    90    91    1
   109    61    62    1
   110    17    14    1
   111   162   163    1
   112   128   129    1
   113   128   126   ar
   114   163   164    1
   115    14    15    1
   116    64    62    1
   117   124   126   ar
   118    50    49    1
   119    50    53    1
   120    91    92    2
   121    15    16    2
   122    54    53    1
   123    54    55    1
   124   164   165    2
   125   183   182    1
   126   107   106    2
   127   182   181    1
   128   181   180    1
   129    56    55    1
   130   102   103    1
   131   102   101    1
   132   106   105    1
   133    32    31    1
   134   100   101    1
   135   100    97    1
   136    33    31    1
   137    40    38    1
   138    39    38    1
   139    96    97    1
   140   105   104    1
   141   105   108    1
   142   180   179    1
   143    31    28    1
   144    27    28    1
   145    97    98    1
   146    38    35    1
   147    34    35    1
   148    34    29   am
   149   174   171    1
   150   108   109    1
   151    28    29    1
   152   170   171    1
   153   179   176    1
   154    98    99    2
   155    35    36    1
   156    29    30    2
   157   109   111   ar
   158   109   110   ar
   159   175   176    1
   160   175   172   am
   161   171   172    1
   162   114   111   ar
   163   114   116   ar
   164   111   113   ar
   165   110   112   ar
   166   176   177    1
   167   116   117   ar
   168   172   173    2
   169   113   112   ar
   170   113   115   ar
   171    47    46    1
   172    36    37    2
   173   117   115   ar
   174   177   178    2
   175    46    48    1
   176    46    45    1
   177    45    42    1
   178    41    42    1
   179    42    43    1
   180    43    44    2
