@<TRIPOS>MOLECULE
tmp/1o0aA01.pdb
 98 90 0 0 0
SMALL
GASTEIGER

@<TRIPOS>ATOM
      1  N         25.5970   26.8090   -3.3880 N.3    11  LEU11      -0.1245
      2  CA        26.2610   27.0360   -2.1220 C.3    11  LEU11       0.1561
      3  C         25.3220   27.4770   -1.0100 C.2    11  LEU11       0.2260
      4  O         25.4090   27.0870    0.1520 O.2    11  LEU11      -0.2867
      5  CB        27.3250   28.1470   -2.2780 C.3    11  LEU11       0.0270
      6  CG        28.6690   27.9490   -1.5850 C.3    11  LEU11       0.0019
      7  CD1       29.3610   29.2810   -1.3110 C.3    11  LEU11       0.0001
      8  CD2       28.5180   27.1510   -0.2940 C.3    11  LEU11       0.0001
      9  N         24.4500   25.6420    2.2800 N.3    15  LEU15      -0.1245
     10  CA        24.8050   26.1390    3.5990 C.3    15  LEU15       0.1561
     11  C         23.6120   26.3230    4.5090 C.2    15  LEU15       0.2260
     12  O         23.5630   26.1780    5.7110 O.2    15  LEU15      -0.2867
     13  CB        25.5350   27.4780    3.4490 C.3    15  LEU15       0.0270
     14  CG        26.8820   27.3630    2.7350 C.3    15  LEU15       0.0019
     15  CD1       27.4010   28.7400    2.3630 C.3    15  LEU15       0.0001
     16  CD2       27.8440   26.6500    3.6800 C.3    15  LEU15       0.0001
     17  N         22.6310   22.6370    5.8230 N.3    18  LEU18      -0.1231
     18  CA        23.4720   22.1380    6.9130 C.3    18  LEU18       0.1693
     19  C         23.3130   22.9740    8.1680 C.2    18  LEU18       0.2592
     20  O         23.4700   22.5800    9.3160 O.2    18  LEU18      -0.2718
     21  CB        24.9440   22.1530    6.4980 C.3    18  LEU18       0.0284
     22  CG        25.4660   21.0380    5.5940 C.3    18  LEU18       0.0019
     23  CD1       24.5510   20.8300    4.4000 C.3    18  LEU18       0.0001
     24  CD2       26.8820   21.3490    5.1140 C.3    18  LEU18       0.0001
     25  N         23.0000   24.2710    7.9720 N.am   19  GLY19      -0.1957
     26  CA        22.7670   25.0720    9.1690 C.3    19  GLY19       0.1869
     27  C         21.4810   24.5940    9.8430 C.2    19  GLY19       0.2309
     28  O         21.4200   24.4420   11.0450 O.2    19  GLY19      -0.2863
     29  N         22.1980   21.2680   11.5260 N.3    22  TYR22      -0.1241
     30  CA        22.9820   21.4940   12.7440 C.3    22  TYR22       0.1605
     31  C         22.1300   22.0260   13.8800 C.2    22  TYR22       0.2264
     32  O         22.1540   21.5100   14.9960 O.2    22  TYR22      -0.2867
     33  CB        24.1460   22.4520   12.4600 C.3    22  TYR22       0.0534
     34  CG        24.9400   22.7470   13.7190 C.ar   22  TYR22      -0.0201
     35  CD1       25.6690   21.7540   14.3610 C.ar   22  TYR22      -0.0009
     36  CD2       24.9510   24.0200   14.2650 C.ar   22  TYR22      -0.0009
     37  CE1       26.3910   22.0150   15.5070 C.ar   22  TYR22       0.0417
     38  CE2       25.6670   24.2940   15.4070 C.ar   22  TYR22       0.0417
     39  CZ        26.3840   23.2960   16.0290 C.ar   22  TYR22       0.1957
     40  OH        27.0870   23.6200   17.1680 O.3    22  TYR22      -0.2866
     41  N         23.8900   35.9370   -0.9590 N.3   200  MET200     -0.1230
     42  CA        24.1920   34.6620   -0.2990 C.3   200  MET200      0.1702
     43  C         25.0410   34.9010    0.9220 C.2   200  MET200      0.2592
     44  O         24.8110   34.3680    2.0060 O.2   200  MET200     -0.2718
     45  CB        24.8800   33.7160   -1.2900 C.3   200  MET200      0.0401
     46  CG        25.0300   32.3320   -0.6600 C.3   200  MET200      0.0596
     47  SD        26.8030   31.9490   -0.5260 S.3   200  MET200     -0.1393
     48  CE        27.0300   31.4250   -2.2220 C.3   200  MET200      0.0692
     49  N         26.0890   35.7440    0.8450 N.am  201  VAL201     -0.1980
     50  CA        26.8430   35.9510    2.0850 C.3   201  VAL201      0.1595
     51  C         26.0770   36.6290    3.2060 C.2   201  VAL201      0.2287
     52  O         26.2140   36.3080    4.3860 O.2   201  VAL201     -0.2864
     53  CB        28.1250   36.7630    1.7510 C.3   201  VAL201      0.0276
     54  CG1       28.9530   36.9130    3.0080 C.3   201  VAL201      0.0022
     55  CG2       28.8680   36.0700    0.6150 C.3   201  VAL201      0.0022
     56  N         23.3870   33.8800    4.6570 N.3   204  VAL204     -0.1231
     57  CA        23.9550   32.8990    5.5930 C.3   204  VAL204      0.1692
     58  C         24.4390   33.4940    6.8910 C.2   204  VAL204      0.2592
     59  O         24.2360   33.0060    7.9980 O.2   204  VAL204     -0.2718
     60  CB        25.1260   32.1520    4.9030 C.3   204  VAL204      0.0266
     61  CG1       25.8150   31.2470    5.9150 C.3   204  VAL204      0.0020
     62  CG2       24.6550   31.3790    3.6860 C.3   204  VAL204      0.0020
     63  N         25.1230   34.6500    6.8060 N.am  205  SER205     -0.1952
     64  CA        25.5590   35.3040    8.0270 C.3   205  SER205      0.1924
     65  C         24.3870   35.7430    8.9120 C.2   205  SER205      0.2314
     66  O         24.3480   35.5530   10.1260 O.2   205  SER205     -0.2863
     67  CB        26.4410   36.5110    7.7090 C.3   205  SER205      0.2116
     68  OG        27.4490   36.3160    6.7420 O.3   205  SER205     -0.2180
     69  N         22.3740   31.8730    9.4240 N.3   208  VAL208     -0.1231
     70  CA        23.2020   30.8810   10.1480 C.3   208  VAL208      0.1692
     71  C         24.2270   31.5720   11.0450 C.2   208  VAL208      0.2592
     72  O         24.3690   31.1920   12.2090 O.2   208  VAL208     -0.2718
     73  CB        23.8750   29.9020    9.1790 C.3   208  VAL208      0.0266
     74  CG1       24.7260   28.9010    9.9490 C.3   208  VAL208      0.0020
     75  CG2       22.8270   29.1790    8.3320 C.3   208  VAL208      0.0020
     76  N         24.9460   32.5930   10.6010 N.am  209  GLY209     -0.1957
     77  CA        25.8880   33.2390   11.5210 C.3   209  GLY209      0.1869
     78  C         25.2430   33.7900   12.7680 C.2   209  GLY209      0.2309
     79  O         25.6460   33.5690   13.9150 O.2   209  GLY209     -0.2863
     80  N         24.2630   30.9150   15.0490 N.3   212  LEU212     -0.1245
     81  CA        25.3080   30.3020   15.8980 C.3   212  LEU212      0.1561
     82  C         25.6200   31.2210   17.0580 C.2   212  LEU212      0.2260
     83  O         25.7360   30.7690   18.1980 O.2   212  LEU212     -0.2867
     84  CB        26.5120   29.9380   15.0280 C.3   212  LEU212      0.0270
     85  CG        26.1940   28.8300   14.0050 C.3   212  LEU212      0.0019
     86  CD1       27.2870   28.7070   12.9660 C.3   212  LEU212      0.0001
     87  CD2       25.9720   27.5070   14.7270 C.3   212  LEU212      0.0001
     88  N         24.7600   29.4360   20.7800 N.3   216  ARG216     -0.1245
     89  CA        25.8510   28.9640   21.6380 C.3   216  ARG216      0.1563
     90  C         25.9130   29.7650   22.9390 C.2   216  ARG216      0.2260
     91  O         26.8000   29.5050   23.7570 O.2   216  ARG216     -0.2867
     92  CB        27.2090   29.0100   20.9460 C.3   216  ARG216      0.0307
     93  CG        27.2240   28.7700   19.4540 C.3   216  ARG216      0.0489
     94  CD        27.5760   27.3480   19.0540 C.3   216  ARG216      0.2205
     95  NE        28.1550   27.2870   17.7130 N.pl3 216  ARG216     -0.0865
     96  CZ        29.4280   27.5570   17.4280 C.cat 216  ARG216      0.5346
     97  NH1       30.2770   27.9140   18.3940 N.pl3 216  ARG216      0.1354
     98  NH2       29.8750   27.4710   16.1740 N.pl3 216  ARG216      0.1354
@<TRIPOS>BOND
     1     1     2    1
     2     5     2    1
     3     5     6    1
     4    48    47    1
     5     2     3    1
     6     6     7    1
     7     6     8    1
     8    45    46    1
     9    45    42    1
    10     3     4    2
    11    41    42    1
    12    46    47    1
    13    42    43    1
    14    55    53    1
    15    49    43   am
    16    49    50    1
    17    43    44    2
    18    53    50    1
    19    53    54    1
    20    50    51    1
    21     9    10    1
    22    15    14    1
    23    14    13    1
    24    14    16    1
    25    51    52    2
    26    13    10    1
    27    10    11    1
    28    62    60    1
    29    23    22    1
    30    11    12    2
    31    56    57    1
    32    60    57    1
    33    60    61    1
    34    24    22    1
    35    57    58    1
    36    22    21    1
    37    17    18    1
    38    21    18    1
    39    68    67    1
    40    63    58   am
    41    63    64    1
    42    58    59    2
    43    18    19    1
    44    67    64    1
    45    25    19   am
    46    25    26    1
    47    64    65    1
    48    19    20    2
    49    75    73    1
    50    65    66    2
    51    26    27    1
    52    73    74    1
    53    73    70    1
    54    69    70    1
    55    27    28    2
    56    70    71    1
    57    76    71   am
    58    76    77    1
    59    71    72    2
    60    77    78    1
    61    29    30    1
    62    33    30    1
    63    33    34    1
    64    30    31    1
    65    78    79    2
    66    86    85    1
    67    34    36   ar
    68    34    35   ar
    69    31    32    2
    70    85    87    1
    71    85    84    1
    72    36    38   ar
    73    35    37   ar
    74    84    81    1
    75    80    81    1
    76    38    39   ar
    77    37    39   ar
    78    81    82    1
    79    39    40    1
    80    98    96    1
    81    82    83    2
    82    96    95    2
    83    96    97    1
    84    95    94    1
    85    94    93    1
    86    93    92    1
    87    88    89    1
    88    92    89    1
    89    89    90    1
    90    90    91    2
