@<TRIPOS>MOLECULE
tmp/1o0bB00.pdb
 124 120 0 0 0
SMALL
GASTEIGER

@<TRIPOS>ATOM
      1  N         36.9060   32.2410    6.6450 N.3    23  ARG23      -0.1245
      2  CA        38.2350   31.6570    6.4750 C.3    23  ARG23       0.1563
      3  C         38.6750   30.7680    7.6320 C.2    23  ARG23       0.2260
      4  O         38.2170   30.9280    8.7690 O.2    23  ARG23      -0.2867
      5  CB        39.2790   32.7570    6.2190 C.3    23  ARG23       0.0307
      6  CG        40.2080   33.1490    7.3750 C.3    23  ARG23       0.0489
      7  CD        39.6280   34.2220    8.2840 C.3    23  ARG23       0.2205
      8  NE        38.8440   33.5660    9.2980 N.pl3  23  ARG23      -0.0865
      9  CZ        39.0740   33.6370   10.6000 C.cat  23  ARG23       0.5346
     10  NH1       40.0540   34.3760   11.0970 N.pl3  23  ARG23       0.1354
     11  NH2       38.4220   32.8130   11.3900 N.pl3  23  ARG23       0.1354
     12  N         42.1170   29.8650    9.2470 N.3    25  PRO25      -0.2103
     13  CA        43.5290   30.2340    9.3200 C.3    25  PRO25       0.1489
     14  C         44.4380   29.5730   10.3610 C.2    25  PRO25       0.2418
     15  O         45.1350   30.2700   11.1060 O.2    25  PRO25      -0.2734
     16  CB        43.4330   31.7160    9.6070 C.3    25  PRO25       0.0282
     17  CG        42.3980   31.7210   10.6520 C.3    25  PRO25       0.0208
     18  CD        41.3630   30.6560   10.2340 C.3    25  PRO25       0.0893
     19  N         44.5140   28.2380   10.3740 N.am   26  PRO26      -0.2718
     20  CA        45.4010   27.6650   11.3820 C.3    26  PRO26       0.1535
     21  C         46.8730   27.9750   11.0780 C.2    26  PRO26       0.2598
     22  O         47.2220   28.2780    9.9380 O.2    26  PRO26      -0.2715
     23  CB        45.1460   26.1850   11.2040 C.3    26  PRO26       0.0310
     24  CG        45.1130   26.0840    9.6940 C.3    26  PRO26       0.0237
     25  CD        44.1900   27.2340    9.3420 C.3    26  PRO26       0.0939
     26  N         47.7300   27.9220   12.0930 N.am   27  GLU27      -0.1978
     27  CA        49.1610   28.1280   11.8940 C.3    27  GLU27       0.1602
     28  C         49.7290   26.7340   11.6310 C.2    27  GLU27       0.2287
     29  O         49.3970   25.7990   12.3450 O.2    27  GLU27      -0.2864
     30  CB        49.8290   28.6870   13.1520 C.3    27  GLU27       0.0415
     31  CG        51.3160   28.9710   12.9380 C.3    27  GLU27       0.1163
     32  CD        52.1290   29.0300   14.2080 C.2    27  GLU27       0.3649
     33  OE1       51.5780   28.7390   15.2880 O.co2  27  GLU27      -0.2457
     34  OE2       53.3340   29.3640   14.1170 O.co2  27  GLU27      -0.2457
     35  N         39.5920   21.9960   15.7880 N.3    36  HIS36      -0.1241
     36  CA        39.7340   22.6680   14.4940 C.3    36  HIS36       0.1621
     37  C         38.6040   22.2410   13.5650 C.2    36  HIS36       0.2264
     38  O         38.1750   23.0190   12.7190 O.2    36  HIS36      -0.2867
     39  CB        41.0870   22.3570   13.8490 C.3    36  HIS36       0.0745
     40  CG        42.2480   23.0010   14.5380 C.ar   36  HIS36       0.0817
     41  ND1       43.3280   22.2880   15.0170 N.ar   36  HIS36      -0.2268
     42  CD2       42.4900   24.2950   14.8450 C.ar   36  HIS36       0.1154
     43  CE1       44.1790   23.1160   15.5940 C.ar   36  HIS36       0.1986
     44  NE2       43.6960   24.3400   15.5020 N.ar   36  HIS36      -0.2212
     45  N         48.4190   30.6000    8.6660 N.3    59  ASP59      -0.1239
     46  CA        48.8700   31.7660    9.4080 C.3    59  ASP59       0.1674
     47  C         50.3460   31.5240    9.7610 C.2    59  ASP59       0.2266
     48  O         50.6930   31.2720   10.9100 O.2    59  ASP59      -0.2867
     49  CB        48.0110   31.9000   10.6650 C.3    59  ASP59       0.1410
     50  CG        47.6360   33.3310   10.9680 C.2    59  ASP59       0.3668
     51  OD1       48.3700   34.2420   10.5420 O.co2  59  ASP59      -0.2456
     52  OD2       46.6010   33.5500   11.6320 O.co2  59  ASP59      -0.2456
     53  N         51.3390   38.0670   15.0310 N.3   204  TYR204     -0.1241
     54  CA        49.9840   37.6530   14.7360 C.3   204  TYR204      0.1605
     55  C         48.9890   38.8050   14.6110 C.2   204  TYR204      0.2264
     56  O         48.2740   38.8980   13.6260 O.2   204  TYR204     -0.2867
     57  CB        49.4940   36.6740   15.8130 C.3   204  TYR204      0.0534
     58  CG        47.9870   36.5350   15.8600 C.ar  204  TYR204     -0.0201
     59  CD1       47.3130   35.7600   14.9210 C.ar  204  TYR204     -0.0009
     60  CD2       47.2340   37.2440   16.7930 C.ar  204  TYR204     -0.0009
     61  CE1       45.9270   35.7020   14.9020 C.ar  204  TYR204      0.0417
     62  CE2       45.8490   37.1930   16.7780 C.ar  204  TYR204      0.0417
     63  CZ        45.2020   36.4230   15.8270 C.ar  204  TYR204      0.1957
     64  OH        43.8270   36.4040   15.7700 O.3   204  TYR204     -0.2866
     65  N         47.1170   39.1620   10.9540 N.3   208  HIS208     -0.1241
     66  CA        45.7640   38.6620   10.7900 C.3   208  HIS208      0.1621
     67  C         44.6600   39.5760   10.2730 C.2   208  HIS208      0.2264
     68  O         43.8660   39.1680    9.4060 O.2   208  HIS208     -0.2867
     69  CB        45.3140   37.9500   12.0550 C.3   208  HIS208      0.0745
     70  CG        44.3390   36.8610   11.7890 C.ar  208  HIS208      0.0817
     71  ND1       44.7200   35.5440   11.6720 N.ar  208  HIS208     -0.2268
     72  CD2       43.0120   36.8950   11.5420 C.ar  208  HIS208      0.1154
     73  CE1       43.6700   34.8110   11.3580 C.ar  208  HIS208      0.1986
     74  NE2       42.6210   35.6070   11.2740 N.ar  208  HIS208     -0.2212
     75  N         35.8470   34.5750   12.0480 N.3   221  LEU221     -0.1231
     76  CA        35.4370   33.7330   13.1850 C.3   221  LEU221      0.1693
     77  C         36.6040   33.0790   13.9430 C.2   221  LEU221      0.2592
     78  O         37.3310   32.2650   13.3940 O.2   221  LEU221     -0.2718
     79  CB        34.4770   32.6410   12.7210 C.3   221  LEU221      0.0284
     80  CG        33.3640   33.1710   11.8410 C.3   221  LEU221      0.0019
     81  CD1       32.5080   32.0220   11.4410 C.3   221  LEU221      0.0001
     82  CD2       32.5730   34.2410   12.5760 C.3   221  LEU221      0.0001
     83  N         36.7200   33.3570   15.2320 N.am  222  CYS222     -0.1956
     84  CA        37.8080   32.7980   16.0050 C.3   222  CYS222      0.1843
     85  C         37.2790   32.4090   17.3660 C.2   222  CYS222      0.2626
     86  O         36.0940   32.5470   17.6390 O.2   222  CYS222     -0.2714
     87  CB        38.9140   33.8380   16.1560 C.3   222  CYS222      0.0997
     88  SG        38.4380   35.3010   17.1170 S.3   222  CYS222     -0.0797
     89  N         38.1530   31.9000   18.2170 N.am  223  THR223     -0.1950
     90  CA        37.7390   31.5050   19.5470 C.3   223  THR223      0.1897
     91  C         37.8840   32.6230   20.5970 C.2   223  THR223      0.2313
     92  O         38.5220   33.6520   20.3730 O.2   223  THR223     -0.2863
     93  CB        38.4010   30.1800   19.9780 C.3   223  THR223      0.1794
     94  OG1       39.7910   30.2120   19.6500 O.3   223  THR223     -0.2208
     95  CG2       37.7540   29.0010   19.2740 C.3   223  THR223      0.0378
     96  N         40.7480   35.5600   21.6620 N.3   226  PHE226     -0.1241
     97  CA        41.2030   36.6890   20.8630 C.3   226  PHE226      0.1605
     98  C         40.2350   37.8440   21.0060 C.2   226  PHE226      0.2264
     99  O         40.2760   38.7810   20.2130 O.2   226  PHE226     -0.2867
    100  CB        41.3810   36.3080   19.3960 C.3   226  PHE226      0.0534
    101  CG        42.4260   35.2510   19.1630 C.ar  226  PHE226     -0.0203
    102  CD1       43.7620   35.5920   19.0380 C.ar  226  PHE226     -0.0042
    103  CD2       42.0630   33.9120   19.0250 C.ar  226  PHE226     -0.0042
    104  CE1       44.7160   34.6250   18.7740 C.ar  226  PHE226     -0.0003
    105  CE2       43.0150   32.9350   18.7580 C.ar  226  PHE226     -0.0003
    106  CZ        44.3380   33.2900   18.6320 C.ar  226  PHE226     -0.0000
    107  N         35.4420   40.6350   13.5180 N.3   248  GLN248     -0.1245
    108  CA        35.7460   39.4330   14.2780 C.3   248  GLN248      0.1566
    109  C         34.6500   39.1050   15.2900 C.2   248  GLN248      0.2260
    110  O         34.1530   39.9880   16.0030 O.2   248  GLN248     -0.2867
    111  CB        37.0870   39.6210   14.9980 C.3   248  GLN248      0.0367
    112  CG        37.5650   38.4090   15.7730 C.3   248  GLN248      0.0905
    113  CD        38.9510   38.6040   16.3390 C.2   248  GLN248      0.2608
    114  OE1       39.9380   38.5660   15.6080 O.2   248  GLN248     -0.2717
    115  NE2       39.0370   38.8050   17.6470 N.am  248  GLN248     -0.0878
    116  N         47.4550   21.9700   20.2530 N.3   263  LYS263     -0.1245
    117  CA        48.6290   21.4750   19.5510 C.3   263  LYS263      0.1561
    118  C         49.8700   21.3270   20.4360 C.2   263  LYS263      0.2260
    119  O         50.6580   20.3950   20.2550 O.2   263  LYS263     -0.2867
    120  CB        48.9660   22.3720   18.3580 C.3   263  LYS263      0.0271
    121  CG        47.9430   22.3580   17.2500 C.3   263  LYS263      0.0035
    122  CD        48.6120   22.6080   15.9240 C.3   263  LYS263      0.0206
    123  CE        47.7060   23.3410   14.9520 C.3   263  LYS263      0.1093
    124  NZ        47.6200   24.7690   15.3220 N.3   263  LYS263     -0.1314
@<TRIPOS>BOND
     1     5     2    1
     2     5     6    1
     3     2     1    1
     4     2     3    1
     5     6     7    1
     6     3     4    2
     7     7     8    1
     8    45    46    1
     9    12    13    1
    10    12    18    1
    11     8     9    2
    12    13    16    1
    13    13    14    1
    14    25    24    1
    15    25    19    1
    16    68    67    2
    17    46    47    1
    18    46    49    1
    19    16    17    1
    20    24    23    1
    21    47    48    2
    22    22    21    2
    23    18    17    1
    24    67    66    1
    25    14    19   am
    26    14    15    2
    27    19    20    1
    28    51    50   ar
    29     9    10    1
    30     9    11    1
    31    49    50    1
    32    66    65    1
    33    66    69    1
    34    50    52   ar
    35    21    20    1
    36    21    26   am
    37    23    20    1
    38    74    73   ar
    39    74    72   ar
    40    73    71   ar
    41    81    80    1
    42    72    70   ar
    43    28    27    1
    44    28    29    2
    45    71    70   ar
    46    70    69    1
    47    80    82    1
    48    80    79    1
    49    27    26    1
    50    27    30    1
    51    75    76    1
    52    38    37    2
    53    79    76    1
    54    31    30    1
    55    31    32    1
    56    76    77    1
    57    78    77    2
    58   107   108    1
    59    37    36    1
    60    56    55    2
    61    39    36    1
    62    39    40    1
    63    77    83   am
    64    34    32   ar
    65    32    33   ar
    66   108   111    1
    67   108   109    1
    68    36    35    1
    69    40    42   ar
    70    40    41   ar
    71    55    54    1
    72    54    53    1
    73    54    57    1
    74    42    44   ar
    75    61    59   ar
    76    61    63   ar
    77    59    58   ar
    78   123   124    1
    79   123   122    1
    80   111   112    1
    81    41    43   ar
    82    83    84    1
    83   109   110    2
    84    44    43   ar
    85   114   113    2
    86    64    63    1
    87   112   113    1
    88    57    58    1
    89    63    62   ar
    90    58    60   ar
    91   122   121    1
    92    84    87    1
    93    84    85    1
    94    87    88    1
    95   113   115   am
    96    62    60   ar
    97   121   120    1
    98    85    86    2
    99    85    89   am
   100    89    90    1
   101   120   117    1
   102   106   105   ar
   103   106   104   ar
   104   105   103   ar
   105   104   102   ar
   106   103   101   ar
   107   102   101   ar
   108   101   100    1
   109    95    93    1
   110   100    97    1
   111    90    93    1
   112    90    91    1
   113   117   116    1
   114   117   118    1
   115    94    93    1
   116    99    98    2
   117   119   118    2
   118    92    91    2
   119    97    98    1
   120    97    96    1
