@<TRIPOS>MOLECULE
tmp/1o0bB01.pdb
 173 170 0 0 0
SMALL
GASTEIGER

@<TRIPOS>ATOM
      1  N         36.9060   32.2410    6.6450 N.3    23  ARG23      -0.1231
      2  CA        38.2350   31.6570    6.4750 C.3    23  ARG23       0.1694
      3  C         38.6750   30.7680    7.6320 C.2    23  ARG23       0.2592
      4  O         38.2170   30.9280    8.7690 O.2    23  ARG23      -0.2718
      5  CB        39.2790   32.7570    6.2190 C.3    23  ARG23       0.0321
      6  CG        40.2080   33.1490    7.3750 C.3    23  ARG23       0.0489
      7  CD        39.6280   34.2220    8.2840 C.3    23  ARG23       0.2205
      8  NE        38.8440   33.5660    9.2980 N.pl3  23  ARG23      -0.0865
      9  CZ        39.0740   33.6370   10.6000 C.cat  23  ARG23       0.5346
     10  NH1       40.0540   34.3760   11.0970 N.pl3  23  ARG23       0.1354
     11  NH2       38.4220   32.8130   11.3900 N.pl3  23  ARG23       0.1354
     12  N         39.4870   29.7670    7.3120 N.am   24  PHE24      -0.1963
     13  CA        40.0390   28.8820    8.3260 C.3    24  PHE24       0.1756
     14  C         41.5490   29.1530    8.2410 C.2    24  PHE24       0.2461
     15  O         42.2040   28.7210    7.2910 O.2    24  PHE24      -0.2730
     16  CB        39.7040   27.4150    8.0400 C.3    24  PHE24       0.0574
     17  CG        40.3040   26.4650    9.0380 C.ar   24  PHE24      -0.0200
     18  CD1       40.0700   26.6340   10.4040 C.ar   24  PHE24      -0.0042
     19  CD2       41.1640   25.4460    8.6250 C.ar   24  PHE24      -0.0042
     20  CE1       40.6880   25.8060   11.3470 C.ar   24  PHE24      -0.0003
     21  CE2       41.7870   24.6120    9.5640 C.ar   24  PHE24      -0.0003
     22  CZ        41.5440   24.7990   10.9260 C.ar   24  PHE24      -0.0000
     23  N         42.1170   29.8650    9.2470 N.am   25  PRO25      -0.2716
     24  CA        43.5290   30.2340    9.3200 C.3    25  PRO25       0.1521
     25  C         44.4380   29.5730   10.3610 C.2    25  PRO25       0.2440
     26  O         45.1350   30.2700   11.1060 O.2    25  PRO25      -0.2731
     27  CB        43.4330   31.7160    9.6070 C.3    25  PRO25       0.0310
     28  CG        42.3980   31.7210   10.6520 C.3    25  PRO25       0.0237
     29  CD        41.3630   30.6560   10.2340 C.3    25  PRO25       0.0939
     30  N         44.5140   28.2380   10.3740 N.am   26  PRO26      -0.2716
     31  CA        45.4010   27.6650   11.3820 C.3    26  PRO26       0.1536
     32  C         46.8730   27.9750   11.0780 C.2    26  PRO26       0.2598
     33  O         47.2220   28.2780    9.9380 O.2    26  PRO26      -0.2715
     34  CB        45.1460   26.1850   11.2040 C.3    26  PRO26       0.0310
     35  CG        45.1130   26.0840    9.6940 C.3    26  PRO26       0.0237
     36  CD        44.1900   27.2340    9.3420 C.3    26  PRO26       0.0939
     37  N         47.7300   27.9220   12.0930 N.am   27  GLU27      -0.1978
     38  CA        49.1610   28.1280   11.8940 C.3    27  GLU27       0.1602
     39  C         49.7290   26.7340   11.6310 C.2    27  GLU27       0.2287
     40  O         49.3970   25.7990   12.3450 O.2    27  GLU27      -0.2864
     41  CB        49.8290   28.6870   13.1520 C.3    27  GLU27       0.0415
     42  CG        51.3160   28.9710   12.9380 C.3    27  GLU27       0.1163
     43  CD        52.1290   29.0300   14.2080 C.2    27  GLU27       0.3649
     44  OE1       51.5780   28.7390   15.2880 O.co2  27  GLU27      -0.2457
     45  OE2       53.3340   29.3640   14.1170 O.co2  27  GLU27      -0.2457
     46  N         43.2880   19.0940   15.1570 N.3    33  HIS33      -0.1241
     47  CA        42.5710   18.2670   16.1110 C.3    33  HIS33       0.1621
     48  C         41.0800   18.5320   15.9270 C.2    33  HIS33       0.2264
     49  O         40.7100   19.4080   15.1490 O.2    33  HIS33      -0.2867
     50  CB        43.0420   18.5110   17.5530 C.3    33  HIS33       0.0745
     51  CG        42.9930   19.9400   17.9900 C.ar   33  HIS33       0.0817
     52  ND1       41.8200   20.6580   18.0690 N.ar   33  HIS33      -0.2268
     53  CD2       43.9700   20.7690   18.4330 C.ar   33  HIS33       0.1154
     54  CE1       42.0730   21.8640   18.5470 C.ar   33  HIS33       0.1986
     55  NE2       43.3700   21.9560   18.7770 N.ar   33  HIS33      -0.2212
     56  N         38.9910   20.1330   17.6290 N.3    35  GLY35      -0.1210
     57  CA        38.5760   21.4920   17.9250 C.3    35  GLY35       0.1956
     58  C         38.6030   22.2840   16.6290 C.2    35  GLY35       0.2611
     59  O         37.7270   23.1000   16.3590 O.2    35  GLY35      -0.2717
     60  N         39.5920   21.9960   15.7880 N.am   36  HIS36      -0.1975
     61  CA        39.7340   22.6680   14.4940 C.3    36  HIS36       0.1656
     62  C         38.6040   22.2410   13.5650 C.2    36  HIS36       0.2291
     63  O         38.1750   23.0190   12.7190 O.2    36  HIS36      -0.2864
     64  CB        41.0870   22.3570   13.8490 C.3    36  HIS36       0.0771
     65  CG        42.2480   23.0010   14.5380 C.ar   36  HIS36       0.0820
     66  ND1       43.3280   22.2880   15.0170 N.ar   36  HIS36      -0.2267
     67  CD2       42.4900   24.2950   14.8450 C.ar   36  HIS36       0.1154
     68  CE1       44.1790   23.1160   15.5940 C.ar   36  HIS36       0.1986
     69  NE2       43.6960   24.3400   15.5020 N.ar   36  HIS36      -0.2212
     70  N         35.6620   21.8700   14.4350 N.3    38  LYS38      -0.1231
     71  CA        34.5230   22.6920   14.8470 C.3    38  LYS38       0.1693
     72  C         34.6070   23.9910   14.0440 C.2    38  LYS38       0.2592
     73  O         33.6060   24.4940   13.5130 O.2    38  LYS38      -0.2718
     74  CB        34.6280   22.9880   16.3520 C.3    38  LYS38       0.0285
     75  CG        33.4890   23.8100   17.0060 C.3    38  LYS38       0.0035
     76  CD        33.8710   24.0700   18.4660 C.3    38  LYS38       0.0206
     77  CE        32.7310   24.5480   19.3500 C.3    38  LYS38       0.1093
     78  NZ        32.4910   25.9800   19.1720 N.3    38  LYS38      -0.1314
     79  N         35.8310   24.4960   13.9360 N.am   39  SER39      -0.1952
     80  CA        36.1350   25.7220   13.2140 C.3    39  SER39       0.1924
     81  C         35.9810   25.5570   11.6950 C.2    39  SER39       0.2314
     82  O         35.5300   26.4620   11.0050 O.2    39  SER39      -0.2863
     83  CB        37.5470   26.1660   13.5870 C.3    39  SER39       0.2116
     84  OG        38.0410   27.1290   12.6840 O.3    39  SER39      -0.2180
     85  N         47.1170   39.1620   10.9540 N.3   208  HIS208     -0.1241
     86  CA        45.7640   38.6620   10.7900 C.3   208  HIS208      0.1621
     87  C         44.6600   39.5760   10.2730 C.2   208  HIS208      0.2264
     88  O         43.8660   39.1680    9.4060 O.2   208  HIS208     -0.2867
     89  CB        45.3140   37.9500   12.0550 C.3   208  HIS208      0.0745
     90  CG        44.3390   36.8610   11.7890 C.ar  208  HIS208      0.0817
     91  ND1       44.7200   35.5440   11.6720 N.ar  208  HIS208     -0.2268
     92  CD2       43.0120   36.8950   11.5420 C.ar  208  HIS208      0.1154
     93  CE1       43.6700   34.8110   11.3580 C.ar  208  HIS208      0.1986
     94  NE2       42.6210   35.6070   11.2740 N.ar  208  HIS208     -0.2212
     95  N         35.8470   34.5750   12.0480 N.3   221  LEU221     -0.1231
     96  CA        35.4370   33.7330   13.1850 C.3   221  LEU221      0.1693
     97  C         36.6040   33.0790   13.9430 C.2   221  LEU221      0.2592
     98  O         37.3310   32.2650   13.3940 O.2   221  LEU221     -0.2718
     99  CB        34.4770   32.6410   12.7210 C.3   221  LEU221      0.0284
    100  CG        33.3640   33.1710   11.8410 C.3   221  LEU221      0.0019
    101  CD1       32.5080   32.0220   11.4410 C.3   221  LEU221      0.0001
    102  CD2       32.5730   34.2410   12.5760 C.3   221  LEU221      0.0001
    103  N         36.7200   33.3570   15.2320 N.am  222  CYS222     -0.1956
    104  CA        37.8080   32.7980   16.0050 C.3   222  CYS222      0.1843
    105  C         37.2790   32.4090   17.3660 C.2   222  CYS222      0.2626
    106  O         36.0940   32.5470   17.6390 O.2   222  CYS222     -0.2714
    107  CB        38.9140   33.8380   16.1560 C.3   222  CYS222      0.0997
    108  SG        38.4380   35.3010   17.1170 S.3   222  CYS222     -0.0797
    109  N         38.1530   31.9000   18.2170 N.am  223  THR223     -0.1950
    110  CA        37.7390   31.5050   19.5470 C.3   223  THR223      0.1897
    111  C         37.8840   32.6230   20.5970 C.2   223  THR223      0.2313
    112  O         38.5220   33.6520   20.3730 O.2   223  THR223     -0.2863
    113  CB        38.4010   30.1800   19.9780 C.3   223  THR223      0.1794
    114  OG1       39.7910   30.2120   19.6500 O.3   223  THR223     -0.2208
    115  CG2       37.7540   29.0010   19.2740 C.3   223  THR223      0.0378
    116  N         40.7480   35.5600   21.6620 N.3   226  PHE226     -0.1241
    117  CA        41.2030   36.6890   20.8630 C.3   226  PHE226      0.1605
    118  C         40.2350   37.8440   21.0060 C.2   226  PHE226      0.2264
    119  O         40.2760   38.7810   20.2130 O.2   226  PHE226     -0.2867
    120  CB        41.3810   36.3080   19.3960 C.3   226  PHE226      0.0534
    121  CG        42.4260   35.2510   19.1630 C.ar  226  PHE226     -0.0203
    122  CD1       43.7620   35.5920   19.0380 C.ar  226  PHE226     -0.0042
    123  CD2       42.0630   33.9120   19.0250 C.ar  226  PHE226     -0.0042
    124  CE1       44.7160   34.6250   18.7740 C.ar  226  PHE226     -0.0003
    125  CE2       43.0150   32.9350   18.7580 C.ar  226  PHE226     -0.0003
    126  CZ        44.3380   33.2900   18.6320 C.ar  226  PHE226     -0.0000
    127  N         33.7520   32.5610   19.3320 N.3   251  PHE251     -0.1241
    128  CA        32.9220   31.4730   19.8660 C.3   251  PHE251      0.1605
    129  C         33.8210   30.6420   20.7760 C.2   251  PHE251      0.2264
    130  O         35.0410   30.7120   20.6550 O.2   251  PHE251     -0.2867
    131  CB        32.3680   30.6080   18.7290 C.3   251  PHE251      0.0534
    132  CG        33.4310   30.0000   17.8570 C.ar  251  PHE251     -0.0203
    133  CD1       33.9940   30.7280   16.8180 C.ar  251  PHE251     -0.0042
    134  CD2       33.9120   28.7220   18.1090 C.ar  251  PHE251     -0.0042
    135  CE1       35.0280   30.1980   16.0470 C.ar  251  PHE251     -0.0003
    136  CE2       34.9470   28.1820   17.3430 C.ar  251  PHE251     -0.0003
    137  CZ        35.5070   28.9240   16.3120 C.ar  251  PHE251     -0.0000
    138  N         35.9210   27.5330   22.3470 N.3   253  ARG253     -0.1231
    139  CA        36.6190   26.3940   21.7970 C.3   253  ARG253      0.1694
    140  C         36.1170   25.0840   22.3970 C.2   253  ARG253      0.2591
    141  O         35.4720   25.0540   23.4550 O.2   253  ARG253     -0.2718
    142  CB        38.1200   26.5490   21.9960 C.3   253  ARG253      0.0321
    143  CG        38.5380   26.9770   23.3600 C.3   253  ARG253      0.0489
    144  CD        40.0040   27.3420   23.3580 C.3   253  ARG253      0.2205
    145  NE        40.8220   26.1660   23.0920 N.pl3 253  ARG253     -0.0865
    146  CZ        41.8650   26.1430   22.2670 C.cat 253  ARG253      0.5346
    147  NH1       42.2370   27.2420   21.6190 N.pl3 253  ARG253      0.1354
    148  NH2       42.5070   24.9990   22.0580 N.pl3 253  ARG253      0.1354
    149  N         36.3780   24.0030   21.6790 N.am  254  LEU254     -0.1980
    150  CA        35.9630   22.6790   22.0960 C.3   254  LEU254      0.1596
    151  C         36.9260   22.0630   23.1120 C.2   254  LEU254      0.2287
    152  O         38.1540   22.1530   22.9800 O.2   254  LEU254     -0.2864
    153  CB        35.8800   21.7650   20.8690 C.3   254  LEU254      0.0297
    154  CG        35.5520   20.3080   21.1550 C.3   254  LEU254      0.0022
    155  CD1       34.0740   20.1990   21.5020 C.3   254  LEU254      0.0001
    156  CD2       35.9040   19.4570   19.9650 C.3   254  LEU254      0.0001
    157  N         43.2330   19.2330   23.9870 N.3   261  MET261     -0.1245
    158  CA        42.8330   19.7300   22.6930 C.3   261  MET261      0.1570
    159  C         43.6150   20.9750   22.2860 C.2   261  MET261      0.2261
    160  O         43.0480   21.9860   21.8620 O.2   261  MET261     -0.2867
    161  CB        41.3240   19.9950   22.7110 C.3   261  MET261      0.0387
    162  CG        40.6560   20.0070   21.3480 C.3   261  MET261      0.0595
    163  SD        40.6010   18.3890   20.5640 S.3   261  MET261     -0.1393
    164  CE        39.4030   17.5730   21.5940 C.3   261  MET261      0.0692
    165  N         47.4550   21.9700   20.2530 N.3   263  LYS263     -0.1245
    166  CA        48.6290   21.4750   19.5510 C.3   263  LYS263      0.1561
    167  C         49.8700   21.3270   20.4360 C.2   263  LYS263      0.2260
    168  O         50.6580   20.3950   20.2550 O.2   263  LYS263     -0.2867
    169  CB        48.9660   22.3720   18.3580 C.3   263  LYS263      0.0271
    170  CG        47.9430   22.3580   17.2500 C.3   263  LYS263      0.0035
    171  CD        48.6120   22.6080   15.9240 C.3   263  LYS263      0.0206
    172  CE        47.7060   23.3410   14.9520 C.3   263  LYS263      0.1093
    173  NZ        47.6200   24.7690   15.3220 N.3   263  LYS263     -0.1314
@<TRIPOS>BOND
     1     5     2    1
     2     5     6    1
     3     2     1    1
     4     2     3    1
     5    15    14    2
     6    12     3   am
     7    12    13    1
     8     6     7    1
     9     3     4    2
    10    16    13    1
    11    16    17    1
    12    14    13    1
    13    14    23   am
    14     7     8    1
    15    19    17   ar
    16    19    21   ar
    17    17    18   ar
    18    23    24    1
    19    23    29    1
    20     8     9    2
    21    24    27    1
    22    24    25    1
    23    36    35    1
    24    36    30    1
    25    88    87    2
    26    21    22   ar
    27    27    28    1
    28    35    34    1
    29    33    32    2
    30    29    28    1
    31    87    86    1
    32    25    30   am
    33    25    26    2
    34    30    31    1
    35    18    20   ar
    36     9    10    1
    37     9    11    1
    38    86    85    1
    39    86    89    1
    40    22    20   ar
    41    82    81    2
    42    32    31    1
    43    32    37   am
    44    34    31    1
    45    94    93   ar
    46    94    92   ar
    47    93    91   ar
    48   101   100    1
    49    92    90   ar
    50    39    38    1
    51    39    40    2
    52    91    90   ar
    53    81    80    1
    54    90    89    1
    55   100   102    1
    56   100    99    1
    57    38    37    1
    58    38    41    1
    59    95    96    1
    60    84    83    1
    61    63    62    2
    62    99    96    1
    63    42    41    1
    64    42    43    1
    65    96    97    1
    66    80    83    1
    67    80    79    1
    68    98    97    2
    69    73    72    2
    70    62    61    1
    71    64    61    1
    72    64    65    1
    73    79    72   am
    74    97   103   am
    75    72    71    1
    76    45    43   ar
    77    43    44   ar
    78    70    71    1
    79    61    60    1
    80    65    67   ar
    81    65    66   ar
    82    67    69   ar
    83    71    74    1
    84   172   173    1
    85   172   171    1
    86    66    68   ar
    87    49    48    2
    88    46    47    1
    89   103   104    1
    90    69    68   ar
    91    60    58   am
    92   171   170    1
    93    48    47    1
    94   104   107    1
    95   104   105    1
    96   135   137   ar
    97   135   133   ar
    98    47    50    1
    99   107   108    1
   100   137   136   ar
   101    74    75    1
   102    59    58    2
   103    58    57    1
   104   133   132   ar
   105    75    76    1
   106   170   169    1
   107   136   134   ar
   108   105   106    2
   109   105   109   am
   110    50    51    1
   111    56    57    1
   112   132   134   ar
   113   132   131    1
   114    51    52   ar
   115    51    53   ar
   116    52    54   ar
   117   109   110    1
   118   169   166    1
   119    53    55   ar
   120    76    77    1
   121    54    55   ar
   122   126   125   ar
   123   126   124   ar
   124   131   128    1
   125   125   123   ar
   126   124   122   ar
   127   123   121   ar
   128   122   121   ar
   129   121   120    1
   130    78    77    1
   131   115   113    1
   132   127   128    1
   133   120   117    1
   134   110   113    1
   135   110   111    1
   136   166   165    1
   137   166   167    1
   138   114   113    1
   139   128   129    1
   140   156   154    1
   141   119   118    2
   142   168   167    2
   143   112   111    2
   144   163   162    1
   145   163   164    1
   146   130   129    2
   147   117   118    1
   148   117   116    1
   149   153   154    1
   150   153   150    1
   151   154   155    1
   152   162   161    1
   153   147   146    1
   154   149   150    1
   155   149   140   am
   156   139   142    1
   157   139   138    1
   158   139   140    1
   159   160   159    2
   160   142   143    1
   161   148   146    1
   162   150   151    1
   163   146   145    2
   164   159   158    1
   165   140   141    2
   166   158   161    1
   167   158   157    1
   168   152   151    2
   169   145   144    1
   170   144   143    1
