@<TRIPOS>MOLECULE
tmp/1o0cB00.pdb
 111 108 0 0 0
SMALL
GASTEIGER

@<TRIPOS>ATOM
      1  N         37.9340   32.8750    6.6430 N.3    23  ARG23      -0.1245
      2  CA        39.2530   32.2500    6.4770 C.3    23  ARG23       0.1563
      3  C         39.6890   31.3360    7.6330 C.2    23  ARG23       0.2260
      4  O         39.2370   31.5090    8.7700 O.2    23  ARG23      -0.2867
      5  CB        40.3290   33.3050    6.1540 C.3    23  ARG23       0.0307
      6  CG        41.3130   33.7140    7.2520 C.3    23  ARG23       0.0489
      7  CD        40.7790   34.8000    8.2020 C.3    23  ARG23       0.2205
      8  NE        40.0120   34.1920    9.2680 N.pl3  23  ARG23      -0.0865
      9  CZ        40.2850   34.3230   10.5560 C.cat  23  ARG23       0.5346
     10  NH1       41.2930   35.0640   10.9530 N.pl3  23  ARG23       0.1354
     11  NH2       39.6240   33.6030   11.4370 N.pl3  23  ARG23       0.1354
     12  N         43.0270   30.3080    9.3640 N.3    25  PRO25      -0.2103
     13  CA        44.4480   30.6800    9.4400 C.3    25  PRO25       0.1489
     14  C         45.3910   29.9850   10.4280 C.2    25  PRO25       0.2418
     15  O         46.0290   30.6460   11.2550 O.2    25  PRO25      -0.2734
     16  CB        44.3550   32.1560    9.7850 C.3    25  PRO25       0.0282
     17  CG        43.2770   32.1310   10.8390 C.3    25  PRO25       0.0208
     18  CD        42.2580   31.0530   10.3800 C.3    25  PRO25       0.0893
     19  N         45.5640   28.6700   10.3020 N.am   26  PRO26      -0.2718
     20  CA        46.4700   28.0410   11.2600 C.3    26  PRO26       0.1535
     21  C         47.9420   28.4020   11.0480 C.2    26  PRO26       0.2598
     22  O         48.3690   28.7000    9.9330 O.2    26  PRO26      -0.2715
     23  CB        46.2710   26.5790   10.9570 C.3    26  PRO26       0.0310
     24  CG        46.2380   26.6030    9.4550 C.3    26  PRO26       0.0237
     25  CD        45.3030   27.7660    9.1680 C.3    26  PRO26       0.0939
     26  N         48.7170   28.3580   12.1280 N.am   27  GLU27      -0.1978
     27  CA        50.1590   28.6040   12.0560 C.3    27  GLU27       0.1602
     28  C         50.7850   27.2310   11.7990 C.2    27  GLU27       0.2287
     29  O         50.4460   26.2570   12.4740 O.2    27  GLU27      -0.2864
     30  CB        50.7010   29.1550   13.3700 C.3    27  GLU27       0.0415
     31  CG        52.1950   29.3960   13.2860 C.3    27  GLU27       0.1163
     32  CD        52.8430   29.6660   14.6190 C.2    27  GLU27       0.3649
     33  OE1       52.1120   29.9320   15.6010 O.co2  27  GLU27      -0.2457
     34  OE2       54.0900   29.6090   14.6710 O.co2  27  GLU27      -0.2457
     35  N         49.5180   31.2270    8.7670 N.3    59  ASP59      -0.1239
     36  CA        50.0340   32.3930    9.4890 C.3    59  ASP59       0.1674
     37  C         51.4970   32.1330    9.8500 C.2    59  ASP59       0.2266
     38  O         51.8240   31.8650   11.0010 O.2    59  ASP59      -0.2867
     39  CB        49.2170   32.6020   10.7610 C.3    59  ASP59       0.1410
     40  CG        48.6800   34.0150   10.8960 C.2    59  ASP59       0.3668
     41  OD1       49.3560   34.9680   10.4430 O.co2  59  ASP59      -0.2456
     42  OD2       47.5790   34.1660   11.4770 O.co2  59  ASP59      -0.2456
     43  N         52.3440   38.8390   15.1130 N.3   204  TYR204     -0.1241
     44  CA        50.9900   38.4180   14.7960 C.3   204  TYR204      0.1605
     45  C         49.9350   39.5390   14.7120 C.2   204  TYR204      0.2264
     46  O         49.1620   39.6000   13.7610 O.2   204  TYR204     -0.2867
     47  CB        50.5420   37.3380   15.7960 C.3   204  TYR204      0.0534
     48  CG        49.0390   37.2250   15.9330 C.ar  204  TYR204     -0.0201
     49  CD1       48.3020   36.3990   15.0940 C.ar  204  TYR204     -0.0009
     50  CD2       48.3470   38.0200   16.8430 C.ar  204  TYR204     -0.0009
     51  CE1       46.9050   36.3750   15.1560 C.ar  204  TYR204      0.0417
     52  CE2       46.9690   38.0090   16.9060 C.ar  204  TYR204      0.0417
     53  CZ        46.2490   37.1910   16.0600 C.ar  204  TYR204      0.1957
     54  OH        44.8720   37.2300   16.0930 O.3   204  TYR204     -0.2866
     55  N         48.0720   39.8620   11.0490 N.3   208  HIS208     -0.1241
     56  CA        46.7200   39.3440   10.8700 C.3   208  HIS208      0.1621
     57  C         45.6150   40.2620   10.3370 C.2   208  HIS208      0.2264
     58  O         44.8310   39.8660    9.4600 O.2   208  HIS208     -0.2867
     59  CB        46.2690   38.6420   12.1430 C.3   208  HIS208      0.0745
     60  CG        45.3250   37.5210   11.8900 C.ar  208  HIS208      0.0817
     61  ND1       45.7500   36.2230   11.6980 N.ar  208  HIS208     -0.2268
     62  CD2       43.9770   37.5030   11.7540 C.ar  208  HIS208      0.1154
     63  CE1       44.7040   35.4530   11.4520 C.ar  208  HIS208      0.1986
     64  NE2       43.6180   36.2060   11.4830 N.ar  208  HIS208     -0.2212
     65  N         36.2360   37.9830   10.4350 N.3   220  SER220     -0.1202
     66  CA        37.4200   37.3040   10.9160 C.3   220  SER220      0.2020
     67  C         37.0290   36.5880   12.2060 C.2   220  SER220      0.2619
     68  O         36.8440   37.2420   13.2350 O.2   220  SER220     -0.2717
     69  CB        38.4910   38.3490   11.1990 C.3   220  SER220      0.2103
     70  OG        39.6500   37.7540   11.7430 O.3   220  SER220     -0.2182
     71  N         36.9100   35.2570   12.1540 N.am  221  LEU221     -0.1965
     72  CA        36.5180   34.4420   13.3180 C.3   221  LEU221      0.1728
     73  C         37.6820   33.8260   14.0980 C.2   221  LEU221      0.2616
     74  O         38.4910   33.0820   13.5490 O.2   221  LEU221     -0.2715
     75  CB        35.5550   33.3290   12.8940 C.3   221  LEU221      0.0311
     76  CG        34.3960   33.7690   12.0010 C.3   221  LEU221      0.0022
     77  CD1       33.5700   32.5700   11.6800 C.3   221  LEU221      0.0001
     78  CD2       33.5490   34.8640   12.6420 C.3   221  LEU221      0.0001
     79  N         37.7180   34.0640   15.4040 N.am  222  CYS222     -0.1954
     80  CA        38.7960   33.5300   16.2170 C.3   222  CYS222      0.1843
     81  C         38.2680   33.1160   17.5840 C.2   222  CYS222      0.2626
     82  O         37.0750   33.2490   17.8590 O.2   222  CYS222     -0.2714
     83  CB        39.9180   34.5660   16.3620 C.3   222  CYS222      0.0997
     84  SG        39.4850   36.0420   17.2980 S.3   222  CYS222     -0.0797
     85  N         39.1400   32.5600   18.4160 N.am  223  THR223     -0.1950
     86  CA        38.7470   32.1210   19.7390 C.3   223  THR223      0.1897
     87  C         38.8310   33.2480   20.7830 C.2   223  THR223      0.2313
     88  O         39.4070   34.3140   20.5340 O.2   223  THR223     -0.2863
     89  CB        39.4900   30.8100   20.1680 C.3   223  THR223      0.1794
     90  OG1       40.8580   30.8530   19.7450 O.3   223  THR223     -0.2208
     91  CG2       38.8410   29.5960   19.5230 C.3   223  THR223      0.0378
     92  N         41.6220   36.1710   22.0040 N.3   226  PHE226     -0.1241
     93  CA        42.0170   37.2900   21.1640 C.3   226  PHE226      0.1605
     94  C         41.0660   38.4680   21.3110 C.2   226  PHE226      0.2264
     95  O         41.1280   39.4280   20.5400 O.2   226  PHE226     -0.2867
     96  CB        42.1450   36.8440   19.7000 C.3   226  PHE226      0.0534
     97  CG        43.2620   35.8500   19.4620 C.ar  226  PHE226     -0.0203
     98  CD1       44.5720   36.2800   19.2750 C.ar  226  PHE226     -0.0042
     99  CD2       43.0020   34.4830   19.4340 C.ar  226  PHE226     -0.0042
    100  CE1       45.6080   35.3630   19.0660 C.ar  226  PHE226     -0.0003
    101  CE2       44.0270   33.5630   19.2250 C.ar  226  PHE226     -0.0003
    102  CZ        45.3350   34.0020   19.0400 C.ar  226  PHE226     -0.0000
    103  N         36.2220   41.3830   13.6640 N.3   248  GLN248     -0.1245
    104  CA        36.5370   40.1510   14.3830 C.3   248  GLN248      0.1566
    105  C         35.4460   39.7540   15.3750 C.2   248  GLN248      0.2260
    106  O         34.8390   40.6230   16.0240 O.2   248  GLN248     -0.2867
    107  CB        37.8830   40.2990   15.1080 C.3   248  GLN248      0.0367
    108  CG        38.3970   39.0300   15.7760 C.3   248  GLN248      0.0905
    109  CD        39.7080   39.2520   16.5220 C.2   248  GLN248      0.2608
    110  OE1       40.7540   39.5290   15.9180 O.2   248  GLN248     -0.2717
    111  NE2       39.6640   39.1050   17.8440 N.am  248  GLN248     -0.0878
@<TRIPOS>BOND
     1     5     2    1
     2     5     6    1
     3     2     1    1
     4     2     3    1
     5     6     7    1
     6     3     4    2
     7     7     8    1
     8    35    36    1
     9    25    24    1
    10    25    19    1
    11     8     9    2
    12    12    13    1
    13    12    18    1
    14    13    16    1
    15    13    14    1
    16    24    23    1
    17    58    57    2
    18    36    37    1
    19    36    39    1
    20    16    17    1
    21    37    38    2
    22    22    21    2
    23    19    14   am
    24    19    20    1
    25    57    56    1
    26    18    17    1
    27    14    15    2
    28    65    66    1
    29    41    40   ar
    30     9    10    1
    31     9    11    1
    32    39    40    1
    33    56    55    1
    34    56    59    1
    35    40    42   ar
    36    66    69    1
    37    66    67    1
    38    23    20    1
    39    21    20    1
    40    21    26   am
    41    69    70    1
    42    63    64   ar
    43    63    61   ar
    44    64    62   ar
    45    77    76    1
    46    61    60   ar
    47    62    60   ar
    48    28    27    1
    49    28    29    2
    50    60    59    1
    51    76    78    1
    52    76    75    1
    53    27    26    1
    54    27    30    1
    55    71    67   am
    56    71    72    1
    57    67    68    2
    58    75    72    1
    59    31    30    1
    60    31    32    1
    61    72    73    1
    62    74    73    2
    63   103   104    1
    64    46    45    2
    65    73    79   am
    66   104   107    1
    67   104   105    1
    68    32    34   ar
    69    32    33   ar
    70    45    44    1
    71    44    43    1
    72    44    47    1
    73    49    51   ar
    74    49    48   ar
    75   107   108    1
    76    51    53   ar
    77   105   106    2
    78    79    80    1
    79   108   109    1
    80    47    48    1
    81   110   109    2
    82    48    50   ar
    83    53    54    1
    84    53    52   ar
    85    80    83    1
    86    80    81    1
    87    83    84    1
    88   109   111   am
    89    50    52   ar
    90    81    82    2
    91    81    85   am
    92    85    86    1
    93   102   100   ar
    94   102   101   ar
    95   100    98   ar
    96   101    99   ar
    97    98    97   ar
    98    99    97   ar
    99    97    96    1
   100    91    89    1
   101    96    93    1
   102    86    89    1
   103    86    87    1
   104    90    89    1
   105    88    87    2
   106    95    94    2
   107    93    94    1
   108    93    92    1
