@<TRIPOS>MOLECULE
tmp/1o0dB00.pdb
 237 238 0 0 0
SMALL
GASTEIGER

@<TRIPOS>ATOM
      1  N         22.4540   27.2280   18.5180 N.3    43  HIS43      -0.1241
      2  CA        22.3060   25.8670   18.0190 C.3    43  HIS43       0.1621
      3  C         21.6140   25.7900   16.6770 C.2    43  HIS43       0.2264
      4  O         21.6050   24.7340   16.0440 O.2    43  HIS43      -0.2867
      5  CB        21.5760   24.9700   19.0330 C.3    43  HIS43       0.0745
      6  CG        20.0920   25.1620   19.0760 C.ar   43  HIS43       0.0817
      7  ND1       19.4750   26.0200   19.9610 N.ar   43  HIS43      -0.2268
      8  CD2       19.0990   24.5790   18.3620 C.ar   43  HIS43       0.1154
      9  CE1       18.1650   25.9550   19.7940 C.ar   43  HIS43       0.1986
     10  NE2       17.9110   25.0870   18.8310 N.ar   43  HIS43      -0.2212
     11  N         25.9630   23.2920   15.6200 N.3    47  TYR47      -0.1241
     12  CA        25.6490   22.1730   16.4990 C.3    47  TYR47       0.1605
     13  C         26.2630   20.8920   15.9900 C.2    47  TYR47       0.2264
     14  O         25.5720   20.0180   15.4630 O.2    47  TYR47      -0.2867
     15  CB        24.1420   21.9950   16.6430 C.3    47  TYR47       0.0534
     16  CG        23.8060   21.0450   17.7630 C.ar   47  TYR47      -0.0201
     17  CD1       24.2610   21.2880   19.0490 C.ar   47  TYR47      -0.0009
     18  CD2       23.0800   19.8880   17.5340 C.ar   47  TYR47      -0.0009
     19  CE1       24.0090   20.4040   20.0800 C.ar   47  TYR47       0.0417
     20  CE2       22.8190   18.9970   18.5570 C.ar   47  TYR47       0.0417
     21  CZ        23.2890   19.2620   19.8300 C.ar   47  TYR47       0.1957
     22  OH        23.0550   18.3830   20.8600 O.3    47  TYR47      -0.2866
     23  N         25.0030   17.1960   15.4960 N.3    50  TRP50      -0.1241
     24  CA        24.1610   16.8600   14.3510 C.3    50  TRP50       0.1605
     25  C         24.7700   17.2910   13.0600 C.2    50  TRP50       0.2264
     26  O         24.0980   17.3030   12.0330 O.2    50  TRP50      -0.2867
     27  CB        22.7870   17.5140   14.4580 C.3    50  TRP50       0.0550
     28  CG        21.9850   17.0720   15.6180 C.ar   50  TRP50       0.0003
     29  CD1       22.1960   15.9730   16.3880 C.ar   50  TRP50       0.0946
     30  CD2       20.7990   17.6990   16.1210 C.ar   50  TRP50       0.0152
     31  NE1       21.2110   15.8710   17.3460 N.ar   50  TRP50      -0.2442
     32  CE2       20.3410   16.9200   17.2020 C.ar   50  TRP50       0.0810
     33  CE3       20.0800   18.8440   15.7590 C.ar   50  TRP50       0.0012
     34  CZ2       19.1940   17.2480   17.9280 C.ar   50  TRP50       0.0191
     35  CZ3       18.9460   19.1670   16.4750 C.ar   50  TRP50       0.0001
     36  CH2       18.5120   18.3710   17.5490 C.ar   50  TRP50       0.0015
     37  N         27.9920   23.9990   23.3600 N.3    92  TRP92      -0.1227
     38  CA        27.1710   23.0100   22.6720 C.3    92  TRP92       0.1737
     39  C         27.5230   21.6290   23.1520 C.2    92  TRP92       0.2595
     40  O         26.7190   20.7050   23.0550 O.2    92  TRP92      -0.2718
     41  CB        27.3730   23.0970   21.1570 C.3    92  TRP92       0.0564
     42  CG        28.8130   23.0840   20.7310 C.ar   92  TRP92       0.0003
     43  CD1       29.6210   24.1730   20.5200 C.ar   92  TRP92       0.0946
     44  CD2       29.6190   21.9310   20.4640 C.ar   92  TRP92       0.0152
     45  NE1       30.8780   23.7650   20.1350 N.ar   92  TRP92      -0.2442
     46  CE2       30.9050   22.3950   20.0940 C.ar   92  TRP92       0.0810
     47  CE3       29.3840   20.5530   20.5020 C.ar   92  TRP92       0.0012
     48  CZ2       31.9510   21.5240   19.7650 C.ar   92  TRP92       0.0191
     49  CZ3       30.4270   19.6870   20.1750 C.ar   92  TRP92       0.0001
     50  CH2       31.6910   20.1790   19.8120 C.ar   92  TRP92       0.0015
     51  N         28.7290   21.4880   23.6900 N.am   93  ARG93      -0.1966
     52  CA        29.2110   20.2070   24.1860 C.3    93  ARG93       0.1729
     53  C         28.5170   19.6410   25.3990 C.2    93  ARG93       0.2616
     54  O         28.3710   18.4290   25.5080 O.2    93  ARG93      -0.2715
     55  CB        30.7070   20.2960   24.4930 C.3    93  ARG93       0.0348
     56  CG        31.5880   20.3960   23.2800 C.3    93  ARG93       0.0492
     57  CD        33.0120   20.7270   23.6690 C.3    93  ARG93       0.2205
     58  NE        33.9570   20.3470   22.6250 N.pl3  93  ARG93      -0.0865
     59  CZ        34.1910   19.0900   22.2590 C.cat  93  ARG93       0.5346
     60  NH1       33.5510   18.0850   22.8510 N.pl3  93  ARG93       0.1354
     61  NH2       35.0730   18.8340   21.3050 N.pl3  93  ARG93       0.1354
     62  N         28.0780   20.4890   26.3230 N.am   94  GLU94      -0.1963
     63  CA        27.4550   19.9680   27.5370 C.3    94  GLU94       0.1733
     64  C         26.0100   20.2350   27.8440 C.2    94  GLU94       0.2616
     65  O         25.2470   19.3000   28.0710 O.2    94  GLU94      -0.2715
     66  CB        28.2540   20.3980   28.7620 C.3    94  GLU94       0.0429
     67  CG        27.5720   20.0210   30.0600 C.3    94  GLU94       0.1163
     68  CD        28.2880   20.5720   31.2810 C.2    94  GLU94       0.3649
     69  OE1       27.8400   20.2750   32.4160 O.co2  94  GLU94      -0.2457
     70  OE2       29.2950   21.2990   31.1030 O.co2  94  GLU94      -0.2457
     71  N         25.6220   21.5060   27.8850 N.am   95  ASN95      -0.1958
     72  CA        24.2520   21.8550   28.2450 C.3    95  ASN95       0.1819
     73  C         23.6680   23.0290   27.4990 C.2    95  ASN95       0.2621
     74  O         22.7140   23.6440   27.9730 O.2    95  ASN95      -0.2715
     75  CB        24.1860   22.1440   29.7440 C.3    95  ASN95       0.1195
     76  CG        25.1780   23.2190   30.1720 C.2    95  ASN95       0.2630
     77  OD1       25.8810   23.8030   29.3430 O.2    95  ASN95      -0.2716
     78  ND2       25.2350   23.4860   31.4680 N.am   95  ASN95      -0.0877
     79  N         24.2290   23.3500   26.3350 N.am   96  LEU96      -0.1977
     80  CA        23.7300   24.4630   25.5300 C.3    96  LEU96       0.1596
     81  C         23.7340   25.7850   26.2900 C.2    96  LEU96       0.2287
     82  O         22.8490   26.6200   26.1100 O.2    96  LEU96      -0.2864
     83  CB        22.3110   24.1390   25.0460 C.3    96  LEU96       0.0297
     84  CG        22.0520   23.9700   23.5440 C.3    96  LEU96       0.0022
     85  CD1       23.3380   23.6210   22.8110 C.3    96  LEU96       0.0001
     86  CD2       20.9900   22.8930   23.3350 C.3    96  LEU96       0.0001
     87  N          5.0040   16.2920   19.9010 N.3   146  GLU146     -0.1245
     88  CA         6.3770   15.8080   20.0300 C.3   146  GLU146      0.1567
     89  C          6.8780   15.0460   18.8290 C.2   146  GLU146      0.2260
     90  O          7.9480   15.3540   18.2920 O.2   146  GLU146     -0.2867
     91  CB         6.5190   14.9430   21.2810 C.3   146  GLU146      0.0388
     92  CG         7.9520   14.7650   21.7200 C.3   146  GLU146      0.1160
     93  CD         8.0620   14.0270   23.0310 C.2   146  GLU146      0.3649
     94  OE1        7.4620   14.4810   24.0270 O.co2 146  GLU146     -0.2457
     95  OE2        8.7540   12.9920   23.0640 O.co2 146  GLU146     -0.2457
     96  N         20.2630   17.4930   33.1180 N.3   172  ILE172     -0.1245
     97  CA        21.0740   18.4740   32.4170 C.3   172  ILE172      0.1561
     98  C         21.4620   19.5440   33.3920 C.2   172  ILE172      0.2260
     99  O         20.6170   20.0760   34.1060 O.2   172  ILE172     -0.2867
    100  CB        20.2910   19.1150   31.2470 C.3   172  ILE172      0.0252
    101  CG1       20.0270   18.0660   30.1590 C.3   172  ILE172      0.0019
    102  CG2       21.0550   20.3140   30.7020 C.3   172  ILE172      0.0019
    103  CD1       21.2810   17.4560   29.5630 C.3   172  ILE172      0.0001
    104  N          3.8700   24.0460   25.2740 N.3   192  ASP192     -0.1225
    105  CA         5.3250   24.1210   25.2420 C.3   192  ASP192      0.1805
    106  C          5.8340   24.4900   23.8530 C.2   192  ASP192      0.2598
    107  O          5.0690   24.5590   22.8900 O.2   192  ASP192     -0.2718
    108  CB         5.8810   22.7480   25.6500 C.3   192  ASP192      0.1424
    109  CG         7.3820   22.7360   25.8070 C.2   192  ASP192      0.3668
    110  OD1        7.9630   21.6340   25.7150 O.co2 192  ASP192     -0.2456
    111  OD2        7.9810   23.8110   26.0320 O.co2 192  ASP192     -0.2456
    112  N          7.1330   24.7520   23.7520 N.am  193  ALA193     -0.1966
    113  CA         7.7380   25.0490   22.4670 C.3   193  ALA193      0.1728
    114  C          8.0920   23.6730   21.9550 C.2   193  ALA193      0.2616
    115  O          7.8140   22.6800   22.6220 O.2   193  ALA193     -0.2715
    116  CB         8.9860   25.8950   22.6450 C.3   193  ALA193      0.0334
    117  N          8.7000   23.5810   20.7820 N.am  194  CYS194     -0.1954
    118  CA         9.0440   22.2710   20.2590 C.3   194  CYS194      0.1843
    119  C         10.0000   22.4380   19.1160 C.2   194  CYS194      0.2625
    120  O         10.3760   23.5630   18.7870 O.2   194  CYS194     -0.2714
    121  CB         7.7640   21.5540   19.8130 C.3   194  CYS194      0.0997
    122  SG         7.8910   19.7390   19.6670 S.3   194  CYS194     -0.0797
    123  N         10.4270   21.3330   18.5150 N.am  195  GLU195     -0.1977
    124  CA        11.3510   21.4060   17.3870 C.3   195  GLU195      0.1602
    125  C         10.7840   22.3660   16.3800 C.2   195  GLU195      0.2287
    126  O          9.5730   22.3880   16.1630 O.2   195  GLU195     -0.2864
    127  CB        11.5170   20.0280   16.7460 C.3   195  GLU195      0.0415
    128  CG        12.2790   20.0340   15.4250 C.3   195  GLU195      0.1163
    129  CD        12.4580   18.6330   14.8650 C.2   195  GLU195      0.3649
    130  OE1       13.2940   18.4620   13.9470 O.co2 195  GLU195     -0.2457
    131  OE2       11.7580   17.7050   15.3440 O.co2 195  GLU195     -0.2457
    132  N         12.9160   26.8050   17.8020 N.3   198  SER198     -0.1217
    133  CA        14.2220   27.2850   18.2690 C.3   198  SER198      0.1889
    134  C         14.5900   28.6460   17.7480 C.2   198  SER198      0.2288
    135  O         14.3330   28.9650   16.5890 O.2   198  SER198     -0.2866
    136  CB        15.3330   26.3090   17.8560 C.3   198  SER198      0.2089
    137  OG        15.1130   25.0030   18.3580 O.3   198  SER198     -0.2183
    138  N         14.0010   30.7300   22.7230 N.3   218  VAL218     -0.1231
    139  CA        13.6800   29.3090   22.6980 C.3   218  VAL218      0.1692
    140  C         14.9800   28.5180   22.5050 C.2   218  VAL218      0.2593
    141  O         15.6470   28.6420   21.4850 O.2   218  VAL218     -0.2718
    142  CB        12.6800   29.0100   21.5560 C.3   218  VAL218      0.0266
    143  CG1       12.3260   27.5170   21.5260 C.3   218  VAL218      0.0020
    144  CG2       11.4290   29.8640   21.7430 C.3   218  VAL218      0.0020
    145  N         15.3350   27.7010   23.4900 N.am  219  SER219     -0.1938
    146  CA        16.5820   26.9300   23.4470 C.3   219  SER219      0.2055
    147  C         16.4290   25.4100   23.4400 C.2   219  SER219      0.2643
    148  O         16.6630   24.7600   22.4130 O.2   219  SER219     -0.2714
    149  CB        17.4770   27.3480   24.6270 C.3   219  SER219      0.2130
    150  OG        18.6890   26.6250   24.6660 O.3   219  SER219     -0.2179
    151  N         16.0570   24.8270   24.5770 N.am  220  TRP220     -0.1959
    152  CA        15.9130   23.3800   24.6200 C.3   220  TRP220      0.1771
    153  C         14.8730   22.8620   25.5520 C.2   220  TRP220      0.2620
    154  O         14.3310   23.5770   26.3980 O.2   220  TRP220     -0.2715
    155  CB        17.2510   22.7080   24.9650 C.3   220  TRP220      0.0590
    156  CG        17.8080   23.0810   26.3100 C.ar  220  TRP220      0.0006
    157  CD1       18.5590   24.1770   26.6040 C.ar  220  TRP220      0.0946
    158  CD2       17.6550   22.3560   27.5420 C.ar  220  TRP220      0.0152
    159  NE1       18.8890   24.1830   27.9390 N.ar  220  TRP220     -0.2442
    160  CE2       18.3460   23.0760   28.5360 C.ar  220  TRP220      0.0810
    161  CE3       17.0030   21.1700   27.8990 C.ar  220  TRP220      0.0012
    162  CZ2       18.4050   22.6520   29.8610 C.ar  220  TRP220      0.0191
    163  CZ3       17.0630   20.7500   29.2190 C.ar  220  TRP220      0.0001
    164  CH2       17.7580   21.4890   30.1810 C.ar  220  TRP220      0.0015
    165  N         14.6010   21.5770   25.3870 N.am  221  GLY221     -0.1940
    166  CA        13.6280   20.8920   26.2100 C.3   221  GLY221      0.2014
    167  C         13.9080   19.4160   26.0490 C.2   221  GLY221      0.2639
    168  O         14.8670   19.0370   25.3870 O.2   221  GLY221     -0.2714
    169  N         13.0870   18.5810   26.6650 N.am  222  GLU222     -0.1963
    170  CA        13.2470   17.1370   26.5650 C.3   222  GLU222      0.1733
    171  C         11.8910   16.6490   26.1580 C.2   222  GLU222      0.2617
    172  O         10.9870   16.4830   26.9810 O.2   222  GLU222     -0.2715
    173  CB        13.6820   16.5650   27.9150 C.3   222  GLU222      0.0429
    174  CG        15.0580   17.0670   28.3470 C.3   222  GLU222      0.1163
    175  CD        15.3970   16.7340   29.7920 C.2   222  GLU222      0.3649
    176  OE1       14.7280   17.2630   30.7120 O.co2 222  GLU222     -0.2457
    177  OE2       16.3410   15.9410   30.0060 O.co2 222  GLU222     -0.2457
    178  N         11.7380   16.4320   24.8600 N.am  223  GLY223     -0.1940
    179  CA        10.4500   16.0270   24.3440 C.3   223  GLY223      0.2014
    180  C          9.6960   17.3400   24.2480 C.2   223  GLY223      0.2639
    181  O         10.3120   18.4040   24.3420 O.2   223  GLY223     -0.2714
    182  N          8.3830   17.2890   24.0690 N.am  224  CYS224     -0.1967
    183  CA         7.6040   18.5160   23.9790 C.3   224  CYS224      0.1712
    184  C          6.3550   18.4270   24.8050 C.2   224  CYS224      0.2296
    185  O          5.5740   17.4890   24.6710 O.2   224  CYS224     -0.2864
    186  CB         7.2440   18.8250   22.5130 C.3   224  CYS224      0.0983
    187  SG         8.6850   19.1650   21.4400 S.3   224  CYS224     -0.0798
    188  N          5.8090   17.6020   27.8500 N.3   226  ARG226     -0.1245
    189  CA         5.6780   16.3900   28.6410 C.3   226  ARG226      0.1563
    190  C          5.3980   16.8420   30.0390 C.2   226  ARG226      0.2260
    191  O          5.9130   17.8730   30.4770 O.2   226  ARG226     -0.2867
    192  CB         6.9690   15.5770   28.6350 C.3   226  ARG226      0.0307
    193  CG         7.3160   14.9280   27.3150 C.3   226  ARG226      0.0489
    194  CD         8.5240   14.0290   27.4850 C.3   226  ARG226      0.2205
    195  NE         9.0270   13.5240   26.2140 N.pl3 226  ARG226     -0.0865
    196  CZ        10.1760   12.8710   26.0770 C.cat 226  ARG226      0.5346
    197  NH1       10.9400   12.6420   27.1360 N.pl3 226  ARG226      0.1354
    198  NH2       10.5710   12.4640   24.8790 N.pl3 226  ARG226      0.1354
    199  N          9.9230   20.9440   31.4260 N.3   230  TYR230     -0.1227
    200  CA         9.7300   22.3330   31.0370 C.3   230  TYR230      0.1736
    201  C         10.6340   22.7780   29.9210 C.2   230  TYR230      0.2596
    202  O         11.6800   22.1780   29.6650 O.2   230  TYR230     -0.2718
    203  CB         9.9420   23.2560   32.2350 C.3   230  TYR230      0.0548
    204  CG         9.1610   22.8570   33.4600 C.ar  230  TYR230     -0.0200
    205  CD1        9.6860   21.9610   34.3800 C.ar  230  TYR230     -0.0009
    206  CD2        7.8890   23.3550   33.6840 C.ar  230  TYR230     -0.0009
    207  CE1        8.9660   21.5720   35.4870 C.ar  230  TYR230      0.0417
    208  CE2        7.1580   22.9730   34.7850 C.ar  230  TYR230      0.0417
    209  CZ         7.7010   22.0800   35.6840 C.ar  230  TYR230      0.1957
    210  OH         6.9730   21.6940   36.7840 O.3   230  TYR230     -0.2866
    211  N         10.2320   23.8410   29.2390 N.am  231  GLY231     -0.1942
    212  CA        11.0620   24.3610   28.1740 C.3   231  GLY231      0.2014
    213  C         12.1170   25.2700   28.7820 C.2   231  GLY231      0.2639
    214  O         11.8860   25.8960   29.8200 O.2   231  GLY231     -0.2714
    215  N         13.2850   25.3320   28.1550 N.am  232  PHE232     -0.1959
    216  CA        14.3440   26.1880   28.6640 C.3   232  PHE232      0.1771
    217  C         14.6580   27.2920   27.6920 C.2   232  PHE232      0.2619
    218  O         14.6070   27.1150   26.4680 O.2   232  PHE232     -0.2715
    219  CB        15.5990   25.3700   29.0010 C.3   232  PHE232      0.0574
    220  CG        15.4900   24.6110   30.2990 C.ar  232  PHE232     -0.0200
    221  CD1       14.6620   23.5050   30.4040 C.ar  232  PHE232     -0.0042
    222  CD2       16.1680   25.0480   31.4330 C.ar  232  PHE232     -0.0042
    223  CE1       14.5050   22.8450   31.6200 C.ar  232  PHE232     -0.0003
    224  CE2       16.0190   24.4010   32.6460 C.ar  232  PHE232     -0.0003
    225  CZ        15.1830   23.2930   32.7420 C.ar  232  PHE232     -0.0000
    226  N         14.9730   28.4550   28.2420 N.am  233  TYR233     -0.1974
    227  CA        15.2540   29.6130   27.4260 C.3   233  TYR233      0.1639
    228  C         16.4990   30.3200   27.8340 C.2   233  TYR233      0.2290
    229  O         16.8780   30.3330   29.0100 O.2   233  TYR233     -0.2864
    230  CB        14.0670   30.5860   27.4940 C.3   233  TYR233      0.0560
    231  CG        12.7420   29.9330   27.1760 C.ar  233  TYR233     -0.0198
    232  CD1       12.1570   29.0250   28.0590 C.ar  233  TYR233     -0.0009
    233  CD2       12.1070   30.1650   25.9660 C.ar  233  TYR233     -0.0009
    234  CE1       10.9870   28.3630   27.7410 C.ar  233  TYR233      0.0417
    235  CE2       10.9350   29.5080   25.6410 C.ar  233  TYR233      0.0417
    236  CZ        10.3850   28.6050   26.5310 C.ar  233  TYR233      0.1957
    237  OH         9.2540   27.9180   26.1760 O.3   233  TYR233     -0.2866
@<TRIPOS>BOND
     1    26    25    2
     2    25    24    1
     3   130   129   ar
     4    24    27    1
     5    24    23    1
     6    27    28    1
     7   129   131   ar
     8   129   128    1
     9   128   127    1
    10    14    13    2
    11    28    30   ar
    12    28    29   ar
    13    11    12    1
    14    33    30   ar
    15    33    35   ar
    16    13    12    1
    17     4     3    2
    18    30    32   ar
    19   126   125    2
    20   125   124    1
    21    29    31   ar
    22    35    36   ar
    23    12    15    1
    24   135   134    2
    25    15    16    1
    26     3     2    1
    27   127   124    1
    28    32    31   ar
    29    32    34   ar
    30   124   123    1
    31    18    16   ar
    32    18    20   ar
    33    36    34   ar
    34   134   133    1
    35    16    17   ar
    36   132   133    1
    37   136   133    1
    38   136   137    1
    39     2     1    1
    40     2     5    1
    41    90    89    2
    42     8    10   ar
    43     8     6   ar
    44   123   119   am
    45    20    21   ar
    46   120   119    2
    47    89    88    1
    48    10     9   ar
    49     5     6    1
    50    17    19   ar
    51     6     7   ar
    52   119   118    1
    53   122   121    1
    54   122   187    1
    55    48    50   ar
    56    48    46   ar
    57     9     7   ar
    58    50    49   ar
    59   121   118    1
    60    21    19   ar
    61    21    22    1
    62    87    88    1
    63    88    91    1
    64    46    45   ar
    65    46    44   ar
    66    45    43   ar
    67    49    47   ar
    68   118   117    1
    69    44    47   ar
    70    44    42   ar
    71    43    42   ar
    72    42    41    1
    73   117   114   am
    74    41    38    1
    75    91    92    1
    76    61    59    1
    77   187   186    1
    78   141   140    2
    79   143   142    1
    80   142   144    1
    81   142   139    1
    82    92    93    1
    83   114   113    1
    84   114   115    2
    85    59    58    2
    86    59    60    1
    87   148   147    2
    88   113   116    1
    89   113   112    1
    90   140   139    1
    91   140   145   am
    92   186   183    1
    93    58    57    1
    94    38    39    1
    95    38    37    1
    96   139   138    1
    97    85    84    1
    98   107   106    2
    99    93    95   ar
   100    93    94   ar
   101    40    39    2
   102    39    51   am
   103    56    57    1
   104    56    55    1
   105    86    84    1
   106   147   146    1
   107   147   151   am
   108   146   145    1
   109   146   149    1
   110    84    83    1
   111    51    52    1
   112   112   106   am
   113   106   105    1
   114   183   182    1
   115   183   184    1
   116   182   180   am
   117    52    55    1
   118    52    53    1
   119   180   181    2
   120   180   179    1
   121   179   178    1
   122   151   152    1
   123   152   155    1
   124   152   153    1
   125   149   150    1
   126   185   184    2
   127   178   171   am
   128   198   196    1
   129   155   156    1
   130    83    80    1
   131   105   104    1
   132   105   108    1
   133   168   167    2
   134   165   153   am
   135   165   166    1
   136    53    54    2
   137    53    62   am
   138    80    81    1
   139    80    79    1
   140   153   154    2
   141   235   233   ar
   142   235   236   ar
   143   108   109    1
   144   110   109   ar
   145   109   111   ar
   146   233   231   ar
   147   167   166    1
   148   167   169   am
   149   196   195    2
   150   196   197    1
   151    82    81    2
   152   171   170    1
   153   171   172    2
   154   237   236    1
   155   195   194    1
   156   156   157   ar
   157   156   158   ar
   158    62    63    1
   159    79    73   am
   160   218   217    2
   161   236   234   ar
   162   170   169    1
   163   170   173    1
   164   157   159   ar
   165   231   230    1
   166   231   232   ar
   167   193   194    1
   168   193   192    1
   169   227   230    1
   170   227   228    1
   171   227   226    1
   172    73    74    2
   173    73    72    1
   174    63    64    1
   175    63    66    1
   176   158   161   ar
   177   158   160   ar
   178   217   226   am
   179   217   216    1
   180   234   232   ar
   181   228   229    2
   182    64    71   am
   183    64    65    2
   184   188   189    1
   185    71    72    1
   186   161   163   ar
   187   173   174    1
   188   159   160   ar
   189   215   216    1
   190   215   213   am
   191   212   213    1
   192   212   211    1
   193    72    75    1
   194   174   175    1
   195   160   162   ar
   196   192   189    1
   197   189   190    1
   198   216   219    1
   199    66    67    1
   200   213   214    2
   201   219   220    1
   202   163   164   ar
   203   211   201   am
   204    77    76    2
   205   103   101    1
   206   202   201    2
   207    75    76    1
   208   175   177   ar
   209   175   176   ar
   210   162   164   ar
   211   201   200    1
   212   190   191    2
   213    67    68    1
   214   101   100    1
   215    76    78   am
   216   220   221   ar
   217   220   222   ar
   218   221   223   ar
   219   102   100    1
   220   200   199    1
   221   200   203    1
   222    70    68   ar
   223   100    97    1
   224    68    69   ar
   225   222   224   ar
   226   223   225   ar
   227   203   204    1
   228    97    96    1
   229    97    98    1
   230   224   225   ar
   231    98    99    2
   232   204   206   ar
   233   204   205   ar
   234   206   208   ar
   235   205   207   ar
   236   208   209   ar
   237   207   209   ar
   238   209   210    1
