@<TRIPOS>MOLECULE
tmp/1o0fA00.pdb
 129 123 0 0 0
SMALL
GASTEIGER

@<TRIPOS>ATOM
      1  N         31.9850   11.3930   10.7310 N.3     7  LYS7       -0.1231
      2  CA        32.9540   10.4210   10.2450 C.3     7  LYS7        0.1693
      3  C         32.3760    9.0100   10.3300 C.2     7  LYS7        0.2592
      4  O         32.5990    8.1830    9.4410 O.2     7  LYS7       -0.2718
      5  CB        34.2470   10.5030   11.0580 C.3     7  LYS7        0.0285
      6  CG        35.3340    9.5630   10.5740 C.3     7  LYS7        0.0035
      7  CD        36.6530    9.8440   11.2670 C.3     7  LYS7        0.0206
      8  CE        37.7700    9.0150   10.6560 C.3     7  LYS7        0.1093
      9  NZ        39.0970    9.3290   11.2550 N.3     7  LYS7       -0.1314
     10  N         31.6320    8.7290   11.3990 N.am    8  PHE8       -0.1976
     11  CA        31.0280    7.4130   11.5480 C.3     8  PHE8        0.1639
     12  C         30.0290    7.1690   10.4210 C.2     8  PHE8        0.2290
     13  O         29.9850    6.0850    9.8450 O.2     8  PHE8       -0.2864
     14  CB        30.3300    7.2760   12.9100 C.3     8  PHE8        0.0560
     15  CG        29.5840    5.9800   13.0760 C.ar    8  PHE8       -0.0200
     16  CD1       28.2710    5.8520   12.6290 C.ar    8  PHE8       -0.0042
     17  CD2       30.2150    4.8660   13.6230 C.ar    8  PHE8       -0.0042
     18  CE1       27.6000    4.6410   12.7190 C.ar    8  PHE8       -0.0003
     19  CE2       29.5500    3.6480   13.7170 C.ar    8  PHE8       -0.0003
     20  CZ        28.2400    3.5340   13.2640 C.ar    8  PHE8       -0.0000
     21  N         32.0320    6.5780    7.1700 N.3    11  GLN11      -0.1231
     22  CA        32.7400    5.3040    7.1440 C.3    11  GLN11       0.1698
     23  C         31.8840    4.0620    7.2870 C.2    11  GLN11       0.2592
     24  O         32.2370    3.0060    6.7650 O.2    11  GLN11      -0.2718
     25  CB        33.7760    5.2290    8.2630 C.3    11  GLN11       0.0381
     26  CG        34.8700    6.2550    8.2490 C.3    11  GLN11       0.0905
     27  CD        36.0150    5.8170    9.1330 C.2    11  GLN11       0.2608
     28  OE1       37.0370    5.3360    8.6490 O.2    11  GLN11      -0.2717
     29  NE2       35.8360    5.9490   10.4410 N.am   11  GLN11      -0.0878
     30  N         30.7620    4.1780    7.9920 N.am   12  HIS12      -0.1976
     31  CA        29.9520    3.0020    8.2670 C.3    12  HIS12       0.1656
     32  C         28.4890    2.9540    7.8680 C.2    12  HIS12       0.2291
     33  O         27.8740    1.9000    7.9710 O.2    12  HIS12      -0.2864
     34  CB        30.0480    2.6980    9.7600 C.3    12  HIS12       0.0771
     35  CG        31.4520    2.5860   10.2590 C.ar   12  HIS12       0.0820
     36  ND1       32.2970    1.5670    9.8780 N.ar   12  HIS12      -0.2267
     37  CD2       32.1640    3.3710   11.1020 C.ar   12  HIS12       0.1154
     38  CE1       33.4690    1.7260   10.4660 C.ar   12  HIS12       0.1986
     39  NE2       33.4140    2.8130   11.2140 N.ar   12  HIS12      -0.2212
     40  N         42.4720    1.2400    4.0370 N.3    41  LYS41      -0.1245
     41  CA        42.0010    0.8680    5.3680 C.3    41  LYS41       0.1561
     42  C         41.8350   -0.6520    5.3220 C.2    41  LYS41       0.2260
     43  O         41.1010   -1.1770    4.4880 O.2    41  LYS41      -0.2867
     44  CB        40.6660    1.5390    5.6930 C.3    41  LYS41       0.0271
     45  CG        40.2750    1.3900    7.1560 C.3    41  LYS41       0.0035
     46  CD        38.9550    2.0660    7.4870 C.3    41  LYS41       0.0206
     47  CE        38.6310    1.8840    8.9670 C.3    41  LYS41       0.1093
     48  NZ        37.3340    2.5030    9.3610 N.3    41  LYS41      -0.1314
     49  N         33.9850   -2.4970   25.3670 N.3    65  CYS65      -0.1235
     50  CA        34.6010   -2.2120   24.0800 C.3    65  CYS65       0.1677
     51  C         35.8910   -3.0160   23.9650 C.2    65  CYS65       0.2270
     52  O         36.5090   -3.3480   24.9710 O.2    65  CYS65      -0.2867
     53  CB        34.9970   -0.7520   23.9970 C.3    65  CYS65       0.0956
     54  SG        33.6790    0.4810   24.0600 S.3    65  CYS65      -0.0801
     55  N         38.7170   -2.0000   23.2890 N.3    67  ASN67      -0.1240
     56  CA        39.8210   -1.2550   23.8880 C.3    67  ASN67       0.1653
     57  C         39.7220   -1.1040   25.4070 C.2    67  ASN67       0.2266
     58  O         40.5640   -0.4520   26.0230 O.2    67  ASN67      -0.2867
     59  CB        39.9480    0.1260   23.2220 C.3    67  ASN67       0.1155
     60  CG        38.9200    1.1320   23.7220 C.2    67  ASN67       0.2627
     61  OD1       37.8820    0.7720   24.2810 O.2    67  ASN67      -0.2716
     62  ND2       39.2040    2.4120   23.5020 N.am   67  ASN67      -0.0877
     63  N         37.2210    0.3680   27.0700 N.3    69  GLN69      -0.1245
     64  CA        36.3070    1.4220   27.4740 C.3    69  GLN69       0.1566
     65  C         34.9280    0.8170   27.6840 C.2    69  GLN69       0.2260
     66  O         34.6630   -0.3000   27.2310 O.2    69  GLN69      -0.2867
     67  CB        36.2680    2.5350   26.4280 C.3    69  GLN69       0.0367
     68  CG        37.4770    3.4540   26.5330 C.3    69  GLN69       0.0905
     69  CD        37.3820    4.6650   25.6300 C.2    69  GLN69       0.2608
     70  OE1       37.7780    4.6190   24.4670 O.2    69  GLN69      -0.2717
     71  NE2       36.8510    5.7580   26.1650 N.am   69  GLN69      -0.0878
     72  N         31.9400    2.4230   26.8310 N.3    71  ASN71      -0.1240
     73  CA        30.9410    3.1290   26.0440 C.3    71  ASN71       0.1653
     74  C         30.5020    2.4190   24.7660 C.2    71  ASN71       0.2266
     75  O         30.2060    3.0720   23.7650 O.2    71  ASN71      -0.2867
     76  CB        31.4560    4.5350   25.7140 C.3    71  ASN71       0.1155
     77  CG        32.6700    4.5160   24.8130 C.2    71  ASN71       0.2627
     78  OD1       33.5860    3.7130   25.0000 O.2    71  ASN71      -0.2716
     79  ND2       32.6920    5.4140   23.8320 N.am   71  ASN71      -0.0877
     80  N         30.6400    2.2310   19.5680 N.3   109  ALA109     -0.1245
     81  CA        31.0060    3.0550   20.7110 C.3   109  ALA109      0.1562
     82  C         30.3080    4.3880   20.4750 C.2   109  ALA109      0.2260
     83  O         30.2850    4.8880   19.3520 O.2   109  ALA109     -0.2867
     84  CB        32.5070    3.2530   20.7670 C.3   109  ALA109      0.0290
     85  N         29.5390    8.5440   21.8910 N.3   111  GLU111     -0.1245
     86  CA        30.0790    9.6740   22.6390 C.3   111  GLU111      0.1567
     87  C         29.2590   10.9260   22.3890 C.2   111  GLU111      0.2260
     88  O         28.4770   10.9910   21.4380 O.2   111  GLU111     -0.2867
     89  CB        31.5040   10.0050   22.1930 C.3   111  GLU111      0.0388
     90  CG        32.5880    9.0230   22.5500 C.3   111  GLU111      0.1160
     91  CD        33.9390    9.4760   22.0070 C.2   111  GLU111      0.3649
     92  OE1       34.9640    8.8460   22.3270 O.co2 111  GLU111     -0.2457
     93  OE2       33.9780   10.4670   21.2460 O.co2 111  GLU111     -0.2457
     94  N         30.2730    6.8000   17.2060 N.3   118  VAL118     -0.1231
     95  CA        31.5030    7.4280   16.7270 C.3   118  VAL118      0.1692
     96  C         32.5740    6.4040   16.3610 C.2   118  VAL118      0.2592
     97  O         33.6640    6.7610   15.9250 O.2   118  VAL118     -0.2718
     98  CB        32.0900    8.3980   17.7700 C.3   118  VAL118      0.0266
     99  CG1       31.1260    9.5500   18.0000 C.3   118  VAL118      0.0020
    100  CG2       32.3740    7.6650   19.0780 C.3   118  VAL118      0.0020
    101  N         32.2570    5.1270   16.5260 N.am  119  HIS119     -0.1962
    102  CA        33.2090    4.0690   16.2170 C.3   119  HIS119      0.1787
    103  C         32.4820    2.7470   16.0620 C.2   119  HIS119      0.2620
    104  O         31.5610    2.4480   16.8150 O.2   119  HIS119     -0.2715
    105  CB        34.2470    3.9730   17.3500 C.3   119  HIS119      0.0785
    106  CG        34.9570    2.6530   17.4340 C.ar  119  HIS119      0.0821
    107  ND1       35.9480    2.2730   16.5530 N.ar  119  HIS119     -0.2267
    108  CD2       34.8390    1.6370   18.3220 C.ar  119  HIS119      0.1154
    109  CE1       36.4110    1.0840   16.8970 C.ar  119  HIS119      0.1986
    110  NE2       35.7540    0.6750   17.9680 N.ar  119  HIS119     -0.2212
    111  N         32.8790    1.9630   15.0670 N.am  120  PHE120     -0.1960
    112  CA        32.2690    0.6540   14.8770 C.3   120  PHE120      0.1771
    113  C         33.2460   -0.3140   15.5350 C.2   120  PHE120      0.2619
    114  O         34.3890   -0.4310   15.1030 O.2   120  PHE120     -0.2715
    115  CB        32.1250    0.3250   13.3920 C.3   120  PHE120      0.0574
    116  CG        31.3530   -0.9330   13.1330 C.ar  120  PHE120     -0.0200
    117  CD1       29.9810   -0.8940   12.9140 C.ar  120  PHE120     -0.0042
    118  CD2       31.9890   -2.1700   13.1680 C.ar  120  PHE120     -0.0042
    119  CE1       29.2530   -2.0720   12.7390 C.ar  120  PHE120     -0.0003
    120  CE2       31.2700   -3.3520   12.9940 C.ar  120  PHE120     -0.0003
    121  CZ        29.8960   -3.3000   12.7800 C.ar  120  PHE120     -0.0000
    122  N         32.8010   -1.0080   16.5780 N.am  121  ASP121     -0.1971
    123  CA        33.6830   -1.9100   17.3130 C.3   121  ASP121      0.1709
    124  C         33.7320   -3.3550   16.8410 C.2   121  ASP121      0.2293
    125  O         34.8130   -3.9490   16.7780 O.2   121  ASP121     -0.2864
    126  CB        33.3180   -1.8780   18.8050 C.3   121  ASP121      0.1436
    127  CG        34.5140   -2.1530   19.7110 C.2   121  ASP121      0.3671
    128  OD1       35.5520   -1.4760   19.5460 O.co2 121  ASP121     -0.2456
    129  OD2       34.4180   -3.0330   20.5970 O.co2 121  ASP121     -0.2456
@<TRIPOS>BOND
     1    40    41    1
     2    43    42    2
     3    42    41    1
     4    41    44    1
     5    44    45    1
     6    24    23    2
     7    22    21    1
     8    22    23    1
     9    22    25    1
    10    45    46    1
    11    23    30   am
    12    46    47    1
    13    32    33    2
    14    32    31    1
    15    30    31    1
    16    26    25    1
    17    26    27    1
    18    31    34    1
    19    28    27    2
    20    47    48    1
    21    27    29   am
    22     4     3    2
    23    34    35    1
    24    13    12    2
    25    36    35   ar
    26    36    38   ar
    27     2     3    1
    28     2     1    1
    29     2     5    1
    30    35    37   ar
    31     3    10   am
    32    12    11    1
    33    38    39   ar
    34     6     5    1
    35     6     7    1
    36     8     9    1
    37     8     7    1
    38    37    39   ar
    39    10    11    1
    40    11    14    1
    41    16    18   ar
    42    16    15   ar
    43    18    20   ar
    44   119   121   ar
    45   119   117   ar
    46   121   120   ar
    47    14    15    1
    48   117   116   ar
    49   120   118   ar
    50    15    17   ar
    51   116   118   ar
    52   116   115    1
    53    20    19   ar
    54   115   112    1
    55    17    19   ar
    56   112   111    1
    57   112   113    1
    58   111   103   am
    59   114   113    2
    60   113   122   am
    61    97    96    2
    62   103   102    1
    63   103   104    2
    64   102   101    1
    65   102   105    1
    66    96   101   am
    67    96    95    1
    68   107   109   ar
    69   107   106   ar
    70   122   123    1
    71    95    94    1
    72    95    98    1
    73   125   124    2
    74   124   123    1
    75   109   110   ar
    76   123   126    1
    77   105   106    1
    78   106   108   ar
    79    98    99    1
    80    98   100    1
    81   110   108   ar
    82   126   127    1
    83    83    82    2
    84   128   127   ar
    85    80    81    1
    86   127   129   ar
    87    82    81    1
    88    81    84    1
    89    93    91   ar
    90    88    87    2
    91    85    86    1
    92    91    92   ar
    93    91    90    1
    94    89    90    1
    95    89    86    1
    96    87    86    1
    97    59    60    1
    98    59    56    1
    99    55    56    1
   100    62    60   am
   101    60    61    2
   102    75    74    2
   103    79    77   am
   104    56    57    1
   105    51    50    1
   106    51    52    2
   107    53    54    1
   108    53    50    1
   109    50    49    1
   110    70    69    2
   111    74    73    1
   112    77    78    2
   113    77    76    1
   114    57    58    2
   115    69    71   am
   116    69    68    1
   117    76    73    1
   118    73    72    1
   119    67    68    1
   120    67    64    1
   121    63    64    1
   122    66    65    2
   123    64    65    1
