@<TRIPOS>MOLECULE
tmp/1o0hB00.pdb
 144 139 0 0 0
SMALL
GASTEIGER

@<TRIPOS>ATOM
      1  N         17.3190   -7.6820   31.1250 N.3     7  LYS7       -0.1231
      2  CA        16.0140   -7.6300   30.5110 C.3     7  LYS7        0.1693
      3  C         15.3110   -6.3130   30.8390 C.2     7  LYS7        0.2592
      4  O         14.6450   -5.7420   29.9860 O.2     7  LYS7       -0.2718
      5  CB        15.1700   -8.8320   30.9670 C.3     7  LYS7        0.0285
      6  CG        13.7740   -8.8200   30.3860 C.3     7  LYS7        0.0035
      7  CD        13.0400  -10.1160   30.6800 C.3     7  LYS7        0.0206
      8  CE        11.6190  -10.1230   30.1310 C.3     7  LYS7        0.1093
      9  NZ        10.8690  -11.3520   30.5210 N.3     7  LYS7       -0.1314
     10  N         15.4630   -5.8380   32.0690 N.am    8  PHE8       -0.1976
     11  CA        14.9150   -4.5420   32.4450 C.3     8  PHE8        0.1639
     12  C         15.5020   -3.4450   31.5610 C.2     8  PHE8        0.2290
     13  O         14.7670   -2.5700   31.0950 O.2     8  PHE8       -0.2864
     14  CB        15.1580   -4.2470   33.9340 C.3     8  PHE8        0.0560
     15  CG        14.6110   -2.9150   34.3590 C.ar    8  PHE8       -0.0200
     16  CD1       13.3330   -2.8140   34.8600 C.ar    8  PHE8       -0.0042
     17  CD2       15.3530   -1.7640   34.1990 C.ar    8  PHE8       -0.0042
     18  CE1       12.8230   -1.5850   35.1950 C.ar    8  PHE8       -0.0003
     19  CE2       14.8250   -0.5150   34.5480 C.ar    8  PHE8       -0.0003
     20  CZ        13.5710   -0.4320   35.0200 C.ar    8  PHE8       -0.0000
     21  N         14.0090   -3.7980   27.9600 N.3    11  GLN11      -0.1231
     22  CA        12.6170   -3.4540   27.8170 C.3    11  GLN11       0.1698
     23  C         12.2800   -2.0300   28.2190 C.2    11  GLN11       0.2592
     24  O         11.3410   -1.4610   27.6760 O.2    11  GLN11      -0.2718
     25  CB        11.7410   -4.3980   28.6560 C.3    11  GLN11       0.0381
     26  CG        11.8690   -5.8240   28.3280 C.3    11  GLN11       0.0905
     27  CD        10.7660   -6.6010   28.9960 C.2    11  GLN11       0.2608
     28  OE1        9.8730   -7.0780   28.3280 O.2    11  GLN11      -0.2717
     29  NE2       10.7810   -6.6660   30.3110 N.am   11  GLN11      -0.0878
     30  N         13.0060   -1.4490   29.1630 N.am   12  HIS12      -0.1976
     31  CA        12.5390   -0.2370   29.8280 C.3    12  HIS12       0.1656
     32  C         13.4660    0.9400   29.8420 C.2    12  HIS12       0.2291
     33  O         13.0390    2.0080   30.2780 O.2    12  HIS12      -0.2864
     34  CB        12.1290   -0.5430   31.2730 C.3    12  HIS12       0.0771
     35  CG        11.0980   -1.6130   31.3740 C.ar   12  HIS12       0.0820
     36  ND1        9.8390   -1.4820   30.8370 N.ar   12  HIS12      -0.2267
     37  CD2       11.1370   -2.8400   31.9360 C.ar   12  HIS12       0.1154
     38  CE1        9.1420   -2.5760   31.0640 C.ar   12  HIS12       0.1986
     39  NE2        9.9030   -3.4070   31.7520 N.ar   12  HIS12      -0.2212
     40  N          4.2530   -7.4870   22.2200 N.3    41  LYS41      -0.1245
     41  CA         4.1010   -7.2240   23.6480 C.3    41  LYS41       0.1561
     42  C          3.0710   -6.0870   23.7750 C.2    41  LYS41       0.2260
     43  O          3.2670   -5.0220   23.2070 O.2    41  LYS41      -0.2867
     44  CB         5.4130   -6.8090   24.2780 C.3    41  LYS41       0.0271
     45  CG         5.2700   -6.5980   25.7780 C.3    41  LYS41       0.0035
     46  CD         6.5500   -6.2150   26.4860 C.3    41  LYS41       0.0206
     47  CE         6.3300   -6.0350   27.9900 C.3    41  LYS41       0.1093
     48  NZ         7.5330   -5.5330   28.7120 N.3    41  LYS41      -0.1314
     49  N          1.8710   -3.9210   26.2930 N.3    43  VAL43      -0.1231
     50  CA         2.0620   -2.7130   27.0740 C.3    43  VAL43       0.1692
     51  C          3.5010   -2.6690   27.5590 C.2    43  VAL43       0.2592
     52  O          3.9970   -3.6470   28.1370 O.2    43  VAL43      -0.2718
     53  CB         1.0910   -2.7000   28.2900 C.3    43  VAL43       0.0266
     54  CG1        1.2860   -1.4580   29.1270 C.3    43  VAL43       0.0020
     55  CG2       -0.3830   -2.8160   27.8400 C.3    43  VAL43       0.0020
     56  N          4.1600   -1.5390   27.3530 N.am   44  ASN44      -0.1974
     57  CA         5.5460   -1.4120   27.7820 C.3    44  ASN44       0.1688
     58  C          5.9170    0.0380   27.9670 C.2    44  ASN44       0.2292
     59  O          5.6360    0.8430   27.0800 O.2    44  ASN44      -0.2864
     60  CB         6.4670   -2.0100   26.7170 C.3    44  ASN44       0.1181
     61  CG         7.9010   -2.1100   27.1760 C.2    44  ASN44       0.2629
     62  OD1        8.2420   -2.9300   28.0370 O.2    44  ASN44      -0.2716
     63  ND2        8.7550   -1.2820   26.6110 N.am   44  ASN44      -0.0877
     64  N          5.1640   -4.5480   46.1270 N.3    65  CYS65      -0.1221
     65  CA         4.9970   -4.8460   44.7180 C.3    65  CYS65       0.1808
     66  C          3.5980   -5.4080   44.4920 C.2    65  CYS65       0.2601
     67  O          2.9840   -5.9220   45.4210 O.2    65  CYS65      -0.2717
     68  CB         5.9900   -5.9340   44.2740 C.3    65  CYS65       0.0970
     69  SG         7.7160   -5.5440   44.5180 S.3    65  CYS65      -0.0800
     70  N          3.1250   -5.3240   43.2580 N.am   66  LYS66      -0.1965
     71  CA         1.8410   -5.9130   42.9120 C.3    66  LYS66       0.1728
     72  C          1.7600   -7.3710   43.3380 C.2    66  LYS66       0.2616
     73  O          0.6880   -7.8370   43.7590 O.2    66  LYS66      -0.2715
     74  CB         1.6030   -5.7880   41.4190 C.3    66  LYS66       0.0311
     75  CG         1.1500   -4.4150   41.0580 C.3    66  LYS66       0.0038
     76  CD         0.8140   -4.2740   39.6030 C.3    66  LYS66       0.0206
     77  CE         0.4870   -2.8550   39.3550 C.3    66  LYS66       0.1093
     78  NZ         1.5470   -2.1840   40.1400 N.3    66  LYS66      -0.1314
     79  N          2.8790   -8.0880   43.2510 N.am   67  ASN67      -0.1972
     80  CA         2.8890   -9.5180   43.5840 C.3    67  ASN67       0.1688
     81  C          3.0090   -9.8370   45.0610 C.2    67  ASN67       0.2292
     82  O          3.0780  -11.0140   45.4290 O.2    67  ASN67      -0.2864
     83  CB         3.9760  -10.2720   42.8070 C.3    67  ASN67       0.1181
     84  CG         5.3750   -9.9650   43.2740 C.2    67  ASN67       0.2629
     85  OD1        5.5840   -9.2340   44.2320 O.2    67  ASN67      -0.2716
     86  ND2        6.3600  -10.5390   42.5800 N.am   67  ASN67      -0.0877
     87  N          5.5080   -9.0980   47.1430 N.3    69  GLN69      -0.1245
     88  CA         6.8690   -8.9570   47.6490 C.3    69  GLN69       0.1566
     89  C          7.0410   -7.5010   48.0850 C.2    69  GLN69       0.2260
     90  O          6.2660   -6.6190   47.6590 O.2    69  GLN69      -0.2867
     91  CB         7.9010   -9.2800   46.5650 C.3    69  GLN69       0.0367
     92  CG         8.0080  -10.7470   46.1620 C.3    69  GLN69       0.0905
     93  CD         9.0090  -10.9250   45.0180 C.2    69  GLN69       0.2608
     94  OE1       10.0160  -10.2180   44.9630 O.2    69  GLN69      -0.2717
     95  NE2        8.7180  -11.8210   44.0930 N.am   69  GLN69      -0.0878
     96  N         10.1180   -5.6900   47.8300 N.3    71  ASN71      -0.1240
     97  CA        11.3650   -5.1710   47.2770 C.3    71  ASN71       0.1653
     98  C         11.0820   -4.1720   46.1610 C.2    71  ASN71       0.2266
     99  O         11.8890   -4.0440   45.2540 O.2    71  ASN71      -0.2867
    100  CB        12.2680   -6.3180   46.7560 C.3    71  ASN71       0.1155
    101  CG        11.6440   -7.0920   45.6140 C.2    71  ASN71       0.2627
    102  OD1       10.4560   -7.4330   45.6640 O.2    71  ASN71      -0.2716
    103  ND2       12.4250   -7.4060   44.5960 N.am   71  ASN71      -0.0877
    104  N         10.8720   -3.1370   40.9480 N.3   109  ALA109     -0.1245
    105  CA        11.3650   -4.1110   41.9060 C.3   109  ALA109      0.1562
    106  C         12.8700   -4.1550   41.7570 C.2   109  ALA109      0.2260
    107  O         13.3620   -4.1500   40.6240 O.2   109  ALA109     -0.2867
    108  CB        10.7830   -5.5180   41.6250 C.3   109  ALA109      0.0290
    109  N         14.7820   -4.9100   38.3170 N.3   118  VAL118     -0.1231
    110  CA        14.6090   -6.1580   37.5890 C.3   118  VAL118      0.1692
    111  C         13.1780   -6.3300   37.0910 C.2   118  VAL118      0.2592
    112  O         12.8670   -7.3530   36.4780 O.2   118  VAL118     -0.2718
    113  CB        14.9860   -7.3890   38.4670 C.3   118  VAL118      0.0266
    114  CG1       16.4570   -7.3780   38.8230 C.3   118  VAL118      0.0020
    115  CG2       14.1230   -7.4900   39.7390 C.3   118  VAL118      0.0020
    116  N         12.3010   -5.3640   37.3510 N.am  119  HIS119     -0.1962
    117  CA        10.9030   -5.4400   36.9320 C.3   119  HIS119      0.1787
    118  C         10.2980   -4.0570   37.0340 C.2   119  HIS119      0.2620
    119  O         10.5710   -3.3300   38.0020 O.2   119  HIS119     -0.2715
    120  CB        10.1650   -6.4380   37.8320 C.3   119  HIS119      0.0785
    121  CG         8.6910   -6.3030   37.8270 C.ar  119  HIS119      0.0821
    122  ND1        7.9030   -6.6970   36.7750 N.ar  119  HIS119     -0.2267
    123  CD2        7.8540   -5.8380   38.7830 C.ar  119  HIS119      0.1154
    124  CE1        6.6360   -6.4550   37.0780 C.ar  119  HIS119      0.1986
    125  NE2        6.5830   -5.9430   38.2930 N.ar  119  HIS119     -0.2212
    126  N          9.4950   -3.7060   36.0400 N.am  120  PHE120     -0.1960
    127  CA         8.7720   -2.4480   36.0560 C.3   120  PHE120      0.1771
    128  C          7.3680   -2.7330   36.5760 C.2   120  PHE120      0.2619
    129  O          6.5910   -3.4580   35.9420 O.2   120  PHE120     -0.2715
    130  CB         8.7270   -1.8530   34.6600 C.3   120  PHE120      0.0574
    131  CG         8.2640   -0.4260   34.6320 C.ar  120  PHE120     -0.0200
    132  CD1        6.9240   -0.1120   34.5830 C.ar  120  PHE120     -0.0042
    133  CD2        9.1780    0.6150   34.7160 C.ar  120  PHE120     -0.0042
    134  CE1        6.5180    1.2360   34.5970 C.ar  120  PHE120     -0.0003
    135  CE2        8.7780    1.9380   34.7060 C.ar  120  PHE120     -0.0003
    136  CZ         7.4560    2.2340   34.6630 C.ar  120  PHE120     -0.0000
    137  N          7.0410   -2.2230   37.7540 N.am  121  ASP121     -0.1971
    138  CA         5.7590   -2.5110   38.3990 C.3   121  ASP121      0.1709
    139  C          4.6420   -1.5640   37.9450 C.2   121  ASP121      0.2293
    140  O          3.5410   -2.0080   37.6490 O.2   121  ASP121     -0.2864
    141  CB         5.8860   -2.4890   39.9250 C.3   121  ASP121      0.1436
    142  CG         5.0390   -3.5440   40.6080 C.2   121  ASP121      0.3671
    143  OD1        4.9960   -4.7120   40.1470 O.co2 121  ASP121     -0.2456
    144  OD2        4.3830   -3.2740   41.6380 O.co2 121  ASP121     -0.2456
@<TRIPOS>BOND
     1    40    41    1
     2    43    42    2
     3    41    42    1
     4    41    44    1
     5    44    45    1
     6    45    46    1
     7    49    50    1
     8    46    47    1
     9    63    61   am
    10    60    61    1
    11    60    57    1
    12    50    51    1
    13    50    53    1
    14    59    58    2
    15    61    62    2
    16    56    51   am
    17    56    57    1
    18    51    52    2
    19    24    23    2
    20    57    58    1
    21    22    21    1
    22    22    23    1
    23    22    25    1
    24    55    53    1
    25    47    48    1
    26    23    30   am
    27    53    54    1
    28    26    25    1
    29    26    27    1
    30    28    27    2
    31    27    29   am
    32    30    31    1
    33    31    32    1
    34    31    34    1
    35    32    33    2
    36     4     3    2
    37     8     9    1
    38     8     7    1
    39     6     7    1
    40     6     5    1
    41     2     3    1
    42     2     5    1
    43     2     1    1
    44    36    38   ar
    45    36    35   ar
    46     3    10   am
    47    38    39   ar
    48    13    12    2
    49    34    35    1
    50    35    37   ar
    51    12    11    1
    52    39    37   ar
    53    10    11    1
    54    11    14    1
    55    14    15    1
    56    17    15   ar
    57    17    19   ar
    58    15    16   ar
    59    19    20   ar
    60   132   134   ar
    61   132   131   ar
    62   134   136   ar
    63   131   130    1
    64   131   133   ar
    65   130   127    1
    66   136   135   ar
    67   135   133   ar
    68    16    18   ar
    69    20    18   ar
    70   129   128    2
    71   126   127    1
    72   126   118   am
    73   127   128    1
    74   112   111    2
    75   128   137   am
    76   122   124   ar
    77   122   121   ar
    78   117   118    1
    79   117   116    1
    80   117   120    1
    81   118   119    2
    82   124   125   ar
    83   111   116   am
    84   111   110    1
    85   110   109    1
    86   110   113    1
    87   140   139    2
    88   137   138    1
    89   121   120    1
    90   121   123   ar
    91   139   138    1
    92   125   123   ar
    93   138   141    1
    94   113   114    1
    95   113   115    1
    96    77    76    1
    97    77    78    1
    98    76    75    1
    99   141   142    1
   100   143   142   ar
   101   142   144   ar
   102   107   106    2
   103   104   105    1
   104    75    74    1
   105    74    71    1
   106   108   105    1
   107   106   105    1
   108    86    84   am
   109    83    84    1
   110    83    80    1
   111    71    70    1
   112    71    72    1
   113    79    72   am
   114    79    80    1
   115    70    66   am
   116    84    85    2
   117    72    73    2
   118    80    81    1
   119    95    93   am
   120    68    69    1
   121    68    65    1
   122    66    65    1
   123    66    67    2
   124   103   101   am
   125    65    64    1
   126    94    93    2
   127    93    92    1
   128    81    82    2
   129    99    98    2
   130   101   102    2
   131   101   100    1
   132    98    97    1
   133    92    91    1
   134    91    88    1
   135   100    97    1
   136    87    88    1
   137    97    96    1
   138    88    89    1
   139    90    89    2
