@<TRIPOS>MOLECULE
tmp/1o0mB00.pdb
 141 140 0 0 0
SMALL
GASTEIGER

@<TRIPOS>ATOM
      1  N         17.4500    7.9460    4.8870 N.3     7  LYS7       -0.1231
      2  CA        16.1440    7.9000    5.5350 C.3     7  LYS7        0.1693
      3  C         15.4660    6.5760    5.1960 C.2     7  LYS7        0.2592
      4  O         14.7670    5.9910    6.0260 O.2     7  LYS7       -0.2718
      5  CB        15.2650    9.0710    5.0820 C.3     7  LYS7        0.0285
      6  CG        13.9080    9.0990    5.7760 C.3     7  LYS7        0.0035
      7  CD        13.1170   10.3460    5.4330 C.3     7  LYS7        0.0206
      8  CE        11.7980   10.3810    6.1890 C.3     7  LYS7        0.1093
      9  NZ        10.9990   11.5950    5.8560 N.3     7  LYS7       -0.1314
     10  N         15.6750    6.0950    3.9730 N.am    8  PHE8       -0.1976
     11  CA        15.0820    4.8270    3.5760 C.3     8  PHE8        0.1639
     12  C         15.6320    3.7090    4.4600 C.2     8  PHE8        0.2290
     13  O         14.8810    2.8660    4.9460 O.2     8  PHE8       -0.2864
     14  CB        15.3870    4.5090    2.1120 C.3     8  PHE8        0.0560
     15  CG        14.8210    3.1950    1.6550 C.ar    8  PHE8       -0.0200
     16  CD1       13.5260    3.1120    1.1530 C.ar    8  PHE8       -0.0042
     17  CD2       15.5680    2.0280    1.7690 C.ar    8  PHE8       -0.0042
     18  CE1       12.9840    1.8820    0.7720 C.ar    8  PHE8       -0.0003
     19  CE2       15.0330    0.7960    1.3920 C.ar    8  PHE8       -0.0003
     20  CZ        13.7390    0.7270    0.8940 C.ar    8  PHE8       -0.0000
     21  N         14.2170    3.9930    8.1080 N.3    11  GLN11      -0.1231
     22  CA        12.8200    3.6060    8.2420 C.3    11  GLN11       0.1698
     23  C         12.4700    2.2040    7.7840 C.2    11  GLN11       0.2592
     24  O         11.5770    1.5730    8.3470 O.2    11  GLN11      -0.2718
     25  CB        11.9080    4.5310    7.4360 C.3    11  GLN11       0.0381
     26  CG        11.9990    6.0030    7.7080 C.3    11  GLN11       0.0905
     27  CD        10.8640    6.7420    7.0320 C.2    11  GLN11       0.2608
     28  OE1        9.9190    7.1810    7.6840 O.2    11  GLN11      -0.2717
     29  NE2       10.9370    6.8590    5.7070 N.am   11  GLN11      -0.0878
     30  N         13.1650    1.7120    6.7660 N.am   12  HIS12      -0.1976
     31  CA        12.7790    0.4320    6.1890 C.3    12  HIS12       0.1656
     32  C         13.7130   -0.7670    6.1810 C.2    12  HIS12       0.2291
     33  O         13.2890   -1.8500    5.7880 O.2    12  HIS12      -0.2864
     34  CB        12.3170    0.6810    4.7520 C.3    12  HIS12       0.0771
     35  CG        11.3060    1.7770    4.6230 C.ar   12  HIS12       0.0820
     36  ND1       10.0550    1.7070    5.1990 N.ar   12  HIS12      -0.2267
     37  CD2       11.3600    2.9710    3.9860 C.ar   12  HIS12       0.1154
     38  CE1        9.3820    2.8090    4.9200 C.ar   12  HIS12       0.1986
     39  NE2       10.1510    3.5930    4.1850 N.ar   12  HIS12      -0.2212
     40  N          4.4860    7.5500   13.7490 N.3    41  LYS41      -0.1231
     41  CA         4.3080    7.3690   12.3160 C.3    41  LYS41       0.1678
     42  C          3.2400    6.2800   12.2430 C.2    41  LYS41       0.2434
     43  O          3.4260    5.1830   12.7690 O.2    41  LYS41      -0.2733
     44  CB         5.5950    6.8910   11.6400 C.3    41  LYS41       0.0284
     45  CG         5.4430    6.7940   10.1300 C.3    41  LYS41       0.0035
     46  CD         6.7200    6.3620    9.4370 C.3    41  LYS41       0.0206
     47  CE         6.4960    6.2960    7.9320 C.3    41  LYS41       0.1093
     48  NZ         7.6500    5.7090    7.2000 N.3    41  LYS41      -0.1314
     49  N          2.1000    6.5700   11.5990 N.am   42  PRO42      -0.2718
     50  CA         1.0060    5.6000   11.4830 C.3    42  PRO42       0.1535
     51  C          1.3150    4.2480   10.8450 C.2    42  PRO42       0.2598
     52  O          0.9810    3.2020   11.4040 O.2    42  PRO42      -0.2715
     53  CB        -0.0520    6.3670   10.6900 C.3    42  PRO42       0.0310
     54  CG         0.2200    7.7950   11.0390 C.3    42  PRO42       0.0237
     55  CD         1.7250    7.8510   10.9780 C.3    42  PRO42       0.0939
     56  N          1.9440    4.2700    9.6750 N.am   43  VAL43      -0.1964
     57  CA         2.2450    3.0390    8.9510 C.3    43  VAL43       0.1727
     58  C          3.6850    2.9880    8.4620 C.2    43  VAL43       0.2616
     59  O          4.1800    3.9430    7.8630 O.2    43  VAL43      -0.2715
     60  CB         1.3050    2.8960    7.7330 C.3    43  VAL43       0.0290
     61  CG1        1.5910    1.6010    6.9930 C.3    43  VAL43       0.0023
     62  CG2       -0.1470    2.9440    8.1950 C.3    43  VAL43       0.0023
     63  N          4.3520    1.8660    8.7090 N.am   44  ASN44      -0.1958
     64  CA         5.7340    1.7070    8.2830 C.3    44  ASN44       0.1819
     65  C          6.1110    0.2490    8.0640 C.2    44  ASN44       0.2621
     66  O          5.7580   -0.6250    8.8560 O.2    44  ASN44      -0.2715
     67  CB         6.6800    2.3180    9.3140 C.3    44  ASN44       0.1195
     68  CG         8.1050    2.3750    8.8190 C.2    44  ASN44       0.2630
     69  OD1        8.4160    3.1120    7.8840 O.2    44  ASN44      -0.2716
     70  ND2        8.9790    1.5900    9.4350 N.am   44  ASN44      -0.0877
     71  N          6.8520   -0.0030    6.9920 N.am   45  THR45      -0.1951
     72  CA         7.2800   -1.3490    6.6490 C.3    45  THR45       0.1897
     73  C          8.7840   -1.5460    6.8010 C.2    45  THR45       0.2313
     74  O          9.5770   -0.6800    6.4160 O.2    45  THR45      -0.2863
     75  CB         6.9030   -1.6840    5.1910 C.3    45  THR45       0.1794
     76  OG1        5.4820   -1.5950    5.0320 O.3    45  THR45      -0.2208
     77  CG2        7.3750   -3.0810    4.8240 C.3    45  THR45       0.0378
     78  N          3.0870    5.6280   -7.1510 N.3    66  LYS66      -0.1245
     79  CA         1.7510    6.1040   -6.8120 C.3    66  LYS66       0.1561
     80  C          1.6100    7.5860   -7.1630 C.2    66  LYS66       0.2260
     81  O          0.5430    8.0240   -7.6040 O.2    66  LYS66      -0.2867
     82  CB         1.4930    5.8920   -5.3210 C.3    66  LYS66       0.0271
     83  CG         0.1140    6.3100   -4.8350 C.3    66  LYS66       0.0035
     84  CD         0.0340    6.1320   -3.3310 C.3    66  LYS66       0.0206
     85  CE         1.0990    6.9680   -2.6410 C.3    66  LYS66       0.1093
     86  NZ         1.3580    6.5120   -1.2510 N.3    66  LYS66      -0.1314
     87  N          5.0290   -5.4600    8.5370 N.3    83  ASP83      -0.1239
     88  CA         4.1970   -4.2720    8.4560 C.3    83  ASP83       0.1674
     89  C          3.8860   -3.7950    9.8610 C.2    83  ASP83       0.2266
     90  O          3.4800   -4.5800   10.7200 O.2    83  ASP83      -0.2867
     91  CB         2.8790   -4.5610    7.7330 C.3    83  ASP83       0.1410
     92  CG         3.0480   -4.6950    6.2360 C.2    83  ASP83       0.3668
     93  OD1        3.7090   -3.8260    5.6260 O.co2  83  ASP83      -0.2456
     94  OD2        2.5030   -5.6640    5.6690 O.co2  83  ASP83      -0.2456
     95  N         14.9340    5.2600   -2.2150 N.3   118  VAL118     -0.1231
     96  CA        14.7990    6.4910   -1.4460 C.3   118  VAL118      0.1692
     97  C         13.3740    6.6770   -0.9380 C.2   118  VAL118      0.2592
     98  O         13.0620    7.6800   -0.3000 O.2   118  VAL118     -0.2718
     99  CB        15.1860    7.7290   -2.2900 C.3   118  VAL118      0.0266
    100  CG1       16.6600    7.6750   -2.6520 C.3   118  VAL118      0.0020
    101  CG2       14.3260    7.7960   -3.5510 C.3   118  VAL118      0.0020
    102  N         12.5140    5.7030   -1.2160 N.am  119  HIS119     -0.1962
    103  CA        11.1160    5.7790   -0.8060 C.3   119  HIS119      0.1787
    104  C         10.4520    4.4160   -0.9420 C.2   119  HIS119      0.2620
    105  O         10.6860    3.7050   -1.9150 O.2   119  HIS119     -0.2715
    106  CB        10.3920    6.8130   -1.6840 C.3   119  HIS119      0.0785
    107  CG         8.9160    6.5930   -1.8140 C.ar  119  HIS119      0.0821
    108  ND1        8.0260    6.8730   -0.8010 N.ar  119  HIS119     -0.2267
    109  CD2        8.1730    6.1270   -2.8470 C.ar  119  HIS119      0.1154
    110  CE1        6.7990    6.5900   -1.2020 C.ar  119  HIS119      0.1986
    111  NE2        6.8610    6.1360   -2.4400 N.ar  119  HIS119     -0.2212
    112  N          9.6410    4.0450    0.0450 N.am  120  PHE120     -0.1960
    113  CA         8.9210    2.7730   -0.0010 C.3   120  PHE120      0.1771
    114  C          7.5280    3.1060   -0.5280 C.2   120  PHE120      0.2620
    115  O          6.7490    3.7760    0.1510 O.2   120  PHE120     -0.2715
    116  CB         8.8020    2.1620    1.3980 C.3   120  PHE120      0.0574
    117  CG         8.3770    0.7200    1.3930 C.ar  120  PHE120     -0.0200
    118  CD1        9.3250   -0.2960    1.3630 C.ar  120  PHE120     -0.0042
    119  CD2        7.0300    0.3780    1.3940 C.ar  120  PHE120     -0.0042
    120  CE1        8.9390   -1.6350    1.3340 C.ar  120  PHE120     -0.0003
    121  CE2        6.6340   -0.9620    1.3640 C.ar  120  PHE120     -0.0003
    122  CZ         7.5910   -1.9670    1.3340 C.ar  120  PHE120     -0.0000
    123  N          7.2120    2.6440   -1.7330 N.am  121  ASP121     -0.1957
    124  CA         5.9180    2.9460   -2.3370 C.3   121  ASP121      0.1840
    125  C          4.8030    1.9920   -1.9220 C.2   121  ASP121      0.2622
    126  O          3.6710    2.4250   -1.7000 O.2   121  ASP121     -0.2715
    127  CB         6.0500    2.9690   -3.8640 C.3   121  ASP121      0.1450
    128  CG         5.0860    3.9450   -4.5220 C.2   121  ASP121      0.3671
    129  OD1        5.0380    5.1160   -4.0890 O.co2 121  ASP121     -0.2456
    130  OD2        4.3850    3.5510   -5.4770 O.co2 121  ASP121     -0.2456
    131  N          5.1160    0.7040   -1.8100 N.am  122  ALA122     -0.1963
    132  CA         4.1190   -0.2910   -1.4160 C.3   122  ALA122      0.1728
    133  C          4.6760   -1.7050   -1.4710 C.2   122  ALA122      0.2616
    134  O          5.8010   -1.9250   -1.9160 O.2   122  ALA122     -0.2715
    135  CB         2.9040   -0.2000   -2.3340 C.3   122  ALA122      0.0334
    136  N          3.8820   -2.6560   -0.9900 N.am  123  SER123     -0.1950
    137  CA         4.2430   -4.0670   -1.0440 C.3   123  SER123      0.1924
    138  C          3.0410   -4.7210   -1.7220 C.2   123  SER123      0.2314
    139  O          1.8970   -4.3290   -1.4670 O.2   123  SER123     -0.2863
    140  CB         4.4620   -4.6490    0.3580 C.3   123  SER123      0.2116
    141  OG         3.2520   -4.7590    1.0780 O.3   123  SER123     -0.2180
@<TRIPOS>BOND
     1    81    80    2
     2    80    79    1
     3    78    79    1
     4    79    82    1
     5   130   128   ar
     6    82    83    1
     7    83    84    1
     8   128   129   ar
     9   128   127    1
    10   127   124    1
    11   101    99    1
    12    84    85    1
    13   109   111   ar
    14   109   107   ar
    15   100    99    1
    16    85    86    1
    17   111   110   ar
    18   124   125    1
    19   124   123    1
    20   135   132    1
    21    99    96    1
    22    95    96    1
    23   125   131   am
    24   125   126    2
    25   134   133    2
    26   105   104    2
    27   107   106    1
    28   107   108   ar
    29   131   132    1
    30   123   114   am
    31   138   139    2
    32   138   137    1
    33   106   103    1
    34   133   132    1
    35   133   136   am
    36    96    97    1
    37   102    97   am
    38   102   103    1
    39   110   108   ar
    40   137   136    1
    41   137   140    1
    42   104   103    1
    43   104   112   am
    44    97    98    2
    45   114   113    1
    46   114   115    2
    47   113   112    1
    48   113   116    1
    49   140   141    1
    50    18    20   ar
    51    18    16   ar
    52    20    19   ar
    53    16    15   ar
    54   122   120   ar
    55   122   121   ar
    56   120   118   ar
    57   118   117   ar
    58   121   119   ar
    59    19    17   ar
    60   117   119   ar
    61   117   116    1
    62    15    17   ar
    63    15    14    1
    64    14    11    1
    65    11    10    1
    66    11    12    1
    67    10     3   am
    68    37    39   ar
    69    37    35   ar
    70    39    38   ar
    71    12    13    2
    72    35    34    1
    73    35    36   ar
    74    34    31    1
    75    77    75    1
    76     1     2    1
    77    38    36   ar
    78    76    75    1
    79     5     2    1
    80     5     6    1
    81    75    72    1
    82     3     2    1
    83     3     4    2
    84     7     6    1
    85     7     8    1
    86    93    92   ar
    87    94    92   ar
    88    29    27   am
    89    33    32    2
    90     9     8    1
    91    32    31    1
    92    31    30    1
    93    92    91    1
    94    74    73    2
    95    72    73    1
    96    72    71    1
    97    30    23   am
    98    71    65   am
    99    61    60    1
   100    27    28    2
   101    27    26    1
   102    48    47    1
   103    25    26    1
   104    25    22    1
   105    91    88    1
   106    60    62    1
   107    60    57    1
   108    23    22    1
   109    23    24    2
   110    59    58    2
   111    69    68    2
   112    47    46    1
   113    65    64    1
   114    65    66    2
   115    21    22    1
   116    64    63    1
   117    64    67    1
   118    88    87    1
   119    88    89    1
   120    58    63   am
   121    58    57    1
   122    68    67    1
   123    68    70   am
   124    57    56    1
   125    46    45    1
   126    56    51   am
   127    89    90    2
   128    45    44    1
   129    53    54    1
   130    53    50    1
   131    51    52    2
   132    51    50    1
   133    55    54    1
   134    55    49    1
   135    50    49    1
   136    49    42   am
   137    44    41    1
   138    42    41    1
   139    42    43    2
   140    41    40    1
