@<TRIPOS>MOLECULE
tmp/1o0rA01.pdb
 88 82 0 0 0
SMALL
GASTEIGER

@<TRIPOS>ATOM
      1  N          9.1520   23.2390   41.8100 N.3    58  ARG58      -0.1245
      2  CA         8.9600   24.2260   42.8670 C.3    58  ARG58       0.1563
      3  C          7.7220   25.0740   42.6020 C.2    58  ARG58       0.2260
      4  O          7.6830   25.8670   41.6590 O.2    58  ARG58      -0.2867
      5  CB        10.1540   25.1510   43.0590 C.3    58  ARG58       0.0307
      6  CG         9.9690   25.9700   44.3460 C.3    58  ARG58       0.0489
      7  CD        10.4780   27.3740   44.1990 C.3    58  ARG58       0.2205
      8  NE        11.8470   27.5000   44.6440 N.pl3  58  ARG58      -0.0865
      9  CZ        12.7190   28.3860   44.1750 C.cat  58  ARG58       0.5346
     10  NH1       12.3770   29.2420   43.2190 N.pl3  58  ARG58       0.1354
     11  NH2       13.9350   28.4240   44.6950 N.pl3  58  ARG58       0.1354
     12  N         12.1660   18.7060   44.0610 N.3    88  ASN88      -0.1225
     13  CA        11.6790   19.9520   44.6250 C.3    88  ASN88       0.1785
     14  C         12.8180   20.7780   45.2210 C.2    88  ASN88       0.2597
     15  O         13.4710   20.3530   46.1780 O.2    88  ASN88      -0.2718
     16  CB        10.6310   19.6090   45.7030 C.3    88  ASN88       0.1169
     17  CG        10.0460   20.8420   46.3960 C.2    88  ASN88       0.2627
     18  OD1        9.6910   21.8390   45.7560 O.2    88  ASN88      -0.2716
     19  ND2        9.9210   20.7640   47.7090 N.am   88  ASN88      -0.0877
     20  N         13.0650   21.9520   44.6470 N.am   89  GLN89      -0.1965
     21  CA        14.1210   22.8220   45.1470 C.3    89  GLN89       0.1733
     22  C         13.6490   23.5180   46.4190 C.2    89  GLN89       0.2616
     23  O         12.6930   24.2720   46.3770 O.2    89  GLN89      -0.2715
     24  CB        14.4880   23.8930   44.1120 C.3    89  GLN89       0.0408
     25  CG        15.6310   24.7960   44.5810 C.3    89  GLN89       0.0908
     26  CD        16.1370   25.7730   43.5220 C.2    89  GLN89       0.2608
     27  OE1       16.1750   25.4660   42.3280 O.2    89  GLN89      -0.2717
     28  NE2       16.5480   26.9510   43.9650 N.am   89  GLN89      -0.0878
     29  N         14.3030   23.2780   47.5480 N.am   90  ALA90      -0.1963
     30  CA        13.9020   23.9470   48.7890 C.3    90  ALA90       0.1728
     31  C         14.3700   25.3930   48.7730 C.2    90  ALA90       0.2617
     32  O         15.2260   25.7610   47.9830 O.2    90  ALA90      -0.2715
     33  CB        14.4940   23.2370   49.9940 C.3    90  ALA90       0.0334
     34  N         13.8150   26.2180   49.6480 N.am   91  GLY91      -0.1940
     35  CA        14.2370   27.6060   49.6840 C.3    91  GLY91       0.2014
     36  C         13.5190   28.4430   48.6490 C.2    91  GLY91       0.2638
     37  O         12.7570   27.9140   47.8330 O.2    91  GLY91      -0.2714
     38  N         13.7890   29.7460   48.6700 N.am   92  GLU92      -0.1977
     39  CA        13.1330   30.6930   47.7780 C.3    92  GLU92       0.1602
     40  C         14.1090   31.5130   46.9350 C.2    92  GLU92       0.2287
     41  O         13.7400   32.5480   46.3790 O.2    92  GLU92      -0.2864
     42  CB        12.2600   31.6520   48.5960 C.3    92  GLU92       0.0415
     43  CG        11.1730   31.0040   49.4420 C.3    92  GLU92       0.1163
     44  CD        10.1320   30.2640   48.6020 C.2    92  GLU92       0.3649
     45  OE1        9.7260   30.8010   47.5390 O.co2  92  GLU92      -0.2457
     46  OE2        9.7110   29.1490   49.0100 O.co2  92  GLU92      -0.2457
     47  N         16.8040   16.9690   51.9580 N.3   252  LEU252     -0.1231
     48  CA        16.1570   17.3830   53.1910 C.3   252  LEU252      0.1693
     49  C         14.9820   16.4810   53.5580 C.2   252  LEU252      0.2591
     50  O         14.6470   16.3230   54.7410 O.2   252  LEU252     -0.2718
     51  CB        15.6640   18.8210   53.0430 C.3   252  LEU252      0.0284
     52  CG        16.7290   19.8840   52.7600 C.3   252  LEU252      0.0019
     53  CD1       16.0980   21.2680   52.8040 C.3   252  LEU252      0.0001
     54  CD2       17.8280   19.8100   53.8130 C.3   252  LEU252      0.0001
     55  N         14.3630   15.8780   52.5450 N.am  253  GLU253     -0.1979
     56  CA        13.1970   15.0370   52.7830 C.3   253  GLU253      0.1602
     57  C         12.8310   14.2240   51.5390 C.2   253  GLU253      0.2287
     58  O         13.1500   14.6000   50.4100 O.2   253  GLU253     -0.2864
     59  CB        12.0160   15.9340   53.1910 C.3   253  GLU253      0.0415
     60  CG        10.7410   15.2150   53.6120 C.3   253  GLU253      0.1163
     61  CD         9.5230   16.1440   53.6620 C.2   253  GLU253      0.3649
     62  OE1        9.6820   17.3260   54.0110 O.co2 253  GLU253     -0.2457
     63  OE2        8.3980   15.6930   53.3650 O.co2 253  GLU253     -0.2457
     64  N          9.4370   11.8100   50.0750 N.3   255  GLN255     -0.1245
     65  CA         8.0940   11.3240   50.3160 C.3   255  GLN255      0.1566
     66  C          7.7230   10.5030   49.0970 C.2   255  GLN255      0.2260
     67  O          7.8960   10.9430   47.9590 O.2   255  GLN255     -0.2867
     68  CB         7.1110   12.4810   50.4960 C.3   255  GLN255      0.0367
     69  CG         7.5480   13.5070   51.5340 C.3   255  GLN255      0.0905
     70  CD         7.6080   14.9250   50.9670 C.2   255  GLN255      0.2608
     71  OE1        6.5780   15.5990   50.8150 O.2   255  GLN255     -0.2717
     72  NE2        8.8220   15.3810   50.6370 N.am  255  GLN255     -0.0878
     73  N          8.8970   12.2830   45.7110 N.3   262  LYS262     -0.1245
     74  CA         9.2220   13.6890   45.8510 C.3   262  LYS262      0.1561
     75  C         10.4590   13.8220   46.7140 C.2   262  LYS262      0.2260
     76  O         10.4790   13.3860   47.8510 O.2   262  LYS262     -0.2867
     77  CB         8.0620   14.4570   46.4820 C.3   262  LYS262      0.0271
     78  CG         8.2760   15.9680   46.4970 C.3   262  LYS262      0.0035
     79  CD         7.0430   16.7230   46.9730 C.3   262  LYS262      0.0206
     80  CE         7.2970   18.2510   46.9790 C.3   262  LYS262      0.1093
     81  NZ         6.0710   19.0760   47.2920 N.3   262  LYS262     -0.1314
     82  N         12.9020   16.5930   48.2360 N.3   264  THR264     -0.1218
     83  CA        13.1440   18.0070   48.5090 C.3   264  THR264      0.1862
     84  C         14.6370   18.1810   48.7270 C.2   264  THR264      0.2287
     85  O         15.2480   17.4550   49.5050 O.2   264  THR264     -0.2866
     86  CB        12.4060   18.4540   49.7670 C.3   264  THR264      0.1770
     87  OG1       12.5110   19.8800   49.9330 O.3   264  THR264     -0.2211
     88  CG2       13.0210   17.7800   50.9700 C.3   264  THR264      0.0375
@<TRIPOS>BOND
     1     4     3    2
     2     1     2    1
     3    27    26    2
     4     3     2    1
     5     2     5    1
     6     5     6    1
     7    10     9    1
     8    26    28   am
     9    26    25    1
    10    12    13    1
    11    24    25    1
    12    24    21    1
    13     9     8    2
    14     9    11    1
    15     7     6    1
    16     7     8    1
    17    13    14    1
    18    13    16    1
    19    20    21    1
    20    20    14   am
    21    21    22    1
    22    14    15    2
    23    16    17    1
    24    73    74    1
    25    18    17    2
    26    74    77    1
    27    74    75    1
    28    23    22    2
    29    41    40    2
    30    17    19   am
    31    22    29   am
    32    77    78    1
    33    78    79    1
    34    75    76    2
    35    40    39    1
    36    79    80    1
    37    80    81    1
    38    45    44   ar
    39    29    30    1
    40    39    42    1
    41    39    38    1
    42    37    36    2
    43    67    66    2
    44    32    31    2
    45    82    83    1
    46    83    84    1
    47    83    86    1
    48    42    43    1
    49    44    46   ar
    50    44    43    1
    51    36    38   am
    52    36    35    1
    53    84    85    2
    54    31    30    1
    55    31    34   am
    56    30    33    1
    57    66    65    1
    58    34    35    1
    59    86    87    1
    60    86    88    1
    61    64    65    1
    62    65    68    1
    63    58    57    2
    64    68    69    1
    65    72    70   am
    66    71    70    2
    67    70    69    1
    68    57    56    1
    69    47    48    1
    70    55    56    1
    71    55    49   am
    72    52    53    1
    73    52    51    1
    74    52    54    1
    75    56    59    1
    76    51    48    1
    77    59    60    1
    78    48    49    1
    79    63    61   ar
    80    49    50    2
    81    60    61    1
    82    61    62   ar
