@<TRIPOS>MOLECULE
tmp/1o0sA00.pdb
 92 84 0 0 0
SMALL
GASTEIGER

@<TRIPOS>ATOM
      1  N         26.1860   82.8580   64.9460 N.3    50  GLY50      -0.1210
      2  CA        24.8210   82.3670   65.0100 C.3    50  GLY50       0.1956
      3  C         24.3640   81.8930   63.6440 C.2    50  GLY50       0.2611
      4  O         25.1300   81.2770   62.8980 O.2    50  GLY50      -0.2717
      5  N         23.1170   82.1730   63.2960 N.am   51  MET51      -0.1979
      6  CA        22.6070   81.7510   61.9990 C.3    51  MET51       0.1605
      7  C         23.2530   82.5440   60.8770 C.2    51  MET51       0.2287
      8  O         22.9140   82.3760   59.7020 O.2    51  MET51      -0.2864
      9  CB        21.0830   81.8830   61.9490 C.3    51  MET51       0.0413
     10  CG        20.3790   80.8940   62.8560 C.3    51  MET51       0.0598
     11  SD        18.5910   81.0910   62.9130 S.3    51  MET51      -0.1393
     12  CE        18.4930   82.4970   64.0230 C.3    51  MET51       0.0692
     13  N         21.2230   83.6830   57.7940 N.3    72  MET72      -0.1245
     14  CA        21.0010   85.1200   57.7850 C.3    72  MET72       0.1570
     15  C         22.2410   85.9410   57.5050 C.2    72  MET72       0.2261
     16  O         23.3650   85.4420   57.5750 O.2    72  MET72      -0.2867
     17  CB        20.4500   85.5620   59.1430 C.3    72  MET72       0.0387
     18  CG        19.2920   84.7400   59.6690 C.3    72  MET72       0.0595
     19  SD        18.7660   85.3060   61.3010 S.3    72  MET72      -0.1393
     20  CE        17.0840   84.6180   61.3940 C.3    72  MET72       0.0692
     21  N         20.0510   89.9110   60.9680 N.3    77  GLN77      -0.1245
     22  CA        20.1620   89.5620   62.3760 C.3    77  GLN77       0.1566
     23  C         19.9770   90.8030   63.2460 C.2    77  GLN77       0.2260
     24  O         19.3280   90.7510   64.2910 O.2    77  GLN77      -0.2867
     25  CB        21.5340   88.9350   62.6630 C.3    77  GLN77       0.0367
     26  CG        21.6010   87.4260   62.4290 C.3    77  GLN77       0.0905
     27  CD        23.0070   86.8680   62.5980 C.2    77  GLN77       0.2608
     28  OE1       23.9120   87.1820   61.8210 O.2    77  GLN77      -0.2717
     29  NE2       23.1960   86.0350   63.6180 N.am   77  GLN77      -0.0878
     30  N         16.3610   91.7060   63.5220 N.3    80  ARG80      -0.1231
     31  CA        15.6670   90.8720   64.5040 C.3    80  ARG80       0.1694
     32  C         15.9380   91.3630   65.9190 C.2    80  ARG80       0.2591
     33  O         15.0370   91.3960   66.7620 O.2    80  ARG80      -0.2718
     34  CB        16.0980   89.4050   64.3770 C.3    80  ARG80       0.0321
     35  CG        15.6420   88.7020   63.0940 C.3    80  ARG80       0.0489
     36  CD        16.3370   87.3450   62.9190 C.3    80  ARG80       0.2205
     37  NE        16.1160   86.4370   64.0480 N.pl3  80  ARG80      -0.0865
     38  CZ        15.1130   85.5670   64.1370 C.cat  80  ARG80       0.5346
     39  NH1       14.2300   85.4740   63.1550 N.pl3  80  ARG80       0.1354
     40  NH2       14.9800   84.7960   65.2150 N.pl3  80  ARG80       0.1354
     41  N         17.1800   91.7570   66.1800 N.am   81  VAL81      -0.1980
     42  CA        17.5280   92.2380   67.5050 C.3    81  VAL81       0.1595
     43  C         16.8780   93.5760   67.8400 C.2    81  VAL81       0.2287
     44  O         16.2990   93.7340   68.9160 O.2    81  VAL81      -0.2864
     45  CB        19.0530   92.3750   67.6720 C.3    81  VAL81       0.0276
     46  CG1       19.3780   93.0950   68.9860 C.3    81  VAL81       0.0022
     47  CG2       19.6860   90.9960   67.6590 C.3    81  VAL81       0.0022
     48  N         13.0710   93.1570   68.4740 N.3    84  LYS84      -0.1245
     49  CA        12.7760   92.6100   69.7940 C.3    84  LYS84       0.1561
     50  C         13.1330   93.5980   70.9140 C.2    84  LYS84       0.2260
     51  O         12.4970   93.6210   71.9720 O.2    84  LYS84      -0.2867
     52  CB        13.5190   91.2860   69.9970 C.3    84  LYS84       0.0271
     53  CG        13.1110   90.5420   71.2600 C.3    84  LYS84       0.0035
     54  CD        13.7330   89.1560   71.3190 C.3    84  LYS84       0.0206
     55  CE        13.2390   88.3820   72.5310 C.3    84  LYS84       0.1093
     56  NZ        13.7790   86.9950   72.5660 N.3    84  LYS84      -0.1314
     57  N         18.5700   92.1620   77.6810 N.3    97  GLN97      -0.1245
     58  CA        18.6410   91.5700   76.3430 C.3    97  GLN97       0.1566
     59  C         19.9770   91.8910   75.6840 C.2    97  GLN97       0.2260
     60  O         20.5600   91.0470   75.0050 O.2    97  GLN97      -0.2867
     61  CB        17.5140   92.0920   75.4410 C.3    97  GLN97       0.0367
     62  CG        17.4250   91.3700   74.0950 C.3    97  GLN97       0.0905
     63  CD        16.5210   92.0710   73.0820 C.2    97  GLN97       0.2608
     64  OE1       15.4980   92.6540   73.4410 O.2    97  GLN97      -0.2717
     65  NE2       16.8910   91.9970   71.8050 N.am   97  GLN97      -0.0878
     66  N         26.4830   86.4500   73.5190 N.3   104  ARG104     -0.1231
     67  CA        26.1160   85.4960   72.4670 C.3   104  ARG104      0.1694
     68  C         26.8450   85.6500   71.1350 C.2   104  ARG104      0.2592
     69  O         27.4330   84.6980   70.6290 O.2   104  ARG104     -0.2718
     70  CB        24.6040   85.5580   72.1940 C.3   104  ARG104      0.0321
     71  CG        24.1490   84.5900   71.0940 C.3   104  ARG104      0.0489
     72  CD        22.6260   84.5120   70.9070 C.3   104  ARG104      0.2205
     73  NE        22.0610   85.6480   70.1820 N.pl3 104  ARG104     -0.0865
     74  CZ        21.4030   86.6590   70.7510 C.cat 104  ARG104      0.5346
     75  NH1       21.2250   86.6840   72.0650 N.pl3 104  ARG104      0.1354
     76  NH2       20.9010   87.6410   70.0030 N.pl3 104  ARG104      0.1354
     77  N         26.7730   86.8540   70.5740 N.am  105  ASN105     -0.1974
     78  CA        27.3710   87.1930   69.2920 C.3   105  ASN105      0.1688
     79  C         27.9500   88.6090   69.4530 C.2   105  ASN105      0.2292
     80  O         27.2410   89.6030   69.3140 O.2   105  ASN105     -0.2864
     81  CB        26.2680   87.1730   68.2330 C.3   105  ASN105      0.1181
     82  CG        26.7870   87.3830   66.8400 C.2   105  ASN105      0.2629
     83  OD1       27.7840   88.0670   66.6340 O.2   105  ASN105     -0.2716
     84  ND2       26.0910   86.8150   65.8600 N.am  105  ASN105     -0.0877
     85  N         27.6550   91.0250   66.3590 N.3   108  LEU108     -0.1245
     86  CA        26.2870   91.4880   66.2160 C.3   108  LEU108      0.1561
     87  C         25.9990   92.5570   67.2750 C.2   108  LEU108      0.2260
     88  O         25.4400   93.6100   66.9750 O.2   108  LEU108     -0.2867
     89  CB        25.3190   90.3200   66.3710 C.3   108  LEU108      0.0270
     90  CG        23.8550   90.6910   66.1240 C.3   108  LEU108      0.0019
     91  CD1       23.7020   91.2640   64.7080 C.3   108  LEU108      0.0001
     92  CD2       22.9850   89.4620   66.3080 C.3   108  LEU108      0.0001
@<TRIPOS>BOND
     1    15    16    2
     2    15    14    1
     3    14    13    1
     4    14    17    1
     5    17    18    1
     6    18    19    1
     7     8     7    2
     8     7     6    1
     9    21    22    1
    10    19    20    1
    11    28    27    2
    12     9     6    1
    13     9    10    1
    14     6     5    1
    15    22    25    1
    16    22    23    1
    17    26    27    1
    18    26    25    1
    19    27    29   am
    20    10    11    1
    21     4     3    2
    22    11    12    1
    23    36    35    1
    24    36    37    1
    25    35    34    1
    26    39    38    1
    27    23    24    2
    28     5     3   am
    29    30    31    1
    30     3     2    1
    31    37    38    2
    32    38    40    1
    33    34    31    1
    34    31    32    1
    35    91    90    1
    36     1     2    1
    37    84    82   am
    38    32    41   am
    39    32    33    2
    40    90    92    1
    41    90    89    1
    42    41    42    1
    43    86    85    1
    44    86    89    1
    45    86    87    1
    46    83    82    2
    47    82    81    1
    48    88    87    2
    49    42    45    1
    50    42    43    1
    51    47    45    1
    52    45    46    1
    53    43    44    2
    54    81    78    1
    55    48    49    1
    56    78    79    1
    57    78    77    1
    58    80    79    2
    59    49    52    1
    60    49    50    1
    61    52    53    1
    62    76    74    1
    63    73    74    2
    64    73    72    1
    65    77    68   am
    66    69    68    2
    67    74    75    1
    68    72    71    1
    69    50    51    2
    70    71    70    1
    71    68    67    1
    72    53    54    1
    73    54    55    1
    74    65    63   am
    75    70    67    1
    76    67    66    1
    77    55    56    1
    78    63    64    2
    79    63    62    1
    80    62    61    1
    81    60    59    2
    82    61    58    1
    83    59    58    1
    84    58    57    1
