@<TRIPOS>MOLECULE
tmp/1o0sA01.pdb
 177 165 0 0 0
SMALL
GASTEIGER

@<TRIPOS>ATOM
      1  N         30.6610  104.9310   94.3220 N.3   180  ARG180     -0.1245
      2  CA        29.8690  106.0340   93.8150 C.3   180  ARG180      0.1563
      3  C         29.2980  105.8320   92.4200 C.2   180  ARG180      0.2260
      4  O         29.6280  106.5740   91.4880 O.2   180  ARG180     -0.2867
      5  CB        30.6930  107.3270   93.8490 C.3   180  ARG180      0.0307
      6  CG        29.8540  108.5990   93.7470 C.3   180  ARG180      0.0489
      7  CD        30.5220  109.6460   92.8580 C.3   180  ARG180      0.2205
      8  NE        30.5040  109.2170   91.4630 N.pl3 180  ARG180     -0.0865
      9  CZ        30.8240  109.9860   90.4280 C.cat 180  ARG180      0.5346
     10  NH1       31.1980  111.2490   90.6140 N.pl3 180  ARG180      0.1354
     11  NH2       30.7550  109.4850   89.2000 N.pl3 180  ARG180      0.1354
     12  N         27.3130  106.5440   89.6530 N.3   182  LEU182     -0.1245
     13  CA        26.6400  107.7870   89.2790 C.3   182  LEU182      0.1561
     14  C         25.1220  107.8100   89.3800 C.2   182  LEU182      0.2260
     15  O         24.4240  107.1890   88.5790 O.2   182  LEU182     -0.2867
     16  CB        27.0390  108.2060   87.8640 C.3   182  LEU182      0.0270
     17  CG        26.6900  109.6690   87.5640 C.3   182  LEU182      0.0019
     18  CD1       27.4800  110.5670   88.5040 C.3   182  LEU182      0.0001
     19  CD2       27.0150  110.0090   86.1240 C.3   182  LEU182      0.0001
     20  N         33.9660  110.6780   95.1260 N.3   274  ASN274     -0.1240
     21  CA        34.6570  111.9020   94.7090 C.3   274  ASN274      0.1653
     22  C         36.0260  112.2060   95.3190 C.2   274  ASN274      0.2266
     23  O         37.0070  112.3680   94.5910 O.2   274  ASN274     -0.2867
     24  CB        33.7500  113.1240   94.8940 C.3   274  ASN274      0.1155
     25  CG        32.6180  113.1640   93.8910 C.2   274  ASN274      0.2627
     26  OD1       32.7470  112.6600   92.7720 O.2   274  ASN274     -0.2716
     27  ND2       31.5020  113.7800   94.2770 N.am  274  ASN274     -0.0877
     28  N         35.3990  110.3910   85.3210 N.3   294  ASP294     -0.1239
     29  CA        34.4930  111.2580   86.0790 C.3   294  ASP294      0.1674
     30  C         35.0860  112.6340   86.3090 C.2   294  ASP294      0.2266
     31  O         34.3810  113.6400   86.2620 O.2   294  ASP294     -0.2867
     32  CB        34.1410  110.6220   87.4270 C.3   294  ASP294      0.1410
     33  CG        33.3130  109.3620   87.2660 C.2   294  ASP294      0.3668
     34  OD1       32.2520  109.4440   86.6130 O.co2 294  ASP294     -0.2456
     35  OD2       33.7180  108.2960   87.7780 O.co2 294  ASP294     -0.2456
     36  N         34.8710  114.4830   82.3680 N.3   298  THR298     -0.1218
     37  CA        33.8050  115.4640   82.5340 C.3   298  THR298      0.1862
     38  C         34.3480  116.8570   82.2290 C.2   298  THR298      0.2287
     39  O         33.8260  117.5690   81.3650 O.2   298  THR298     -0.2866
     40  CB        33.2560  115.4290   83.9660 C.3   298  THR298      0.1770
     41  OG1       32.7720  114.1080   84.2550 O.3   298  THR298     -0.2211
     42  CG2       32.1170  116.4390   84.1260 C.3   298  THR298      0.0375
     43  N         33.0350  119.2350   78.7810 N.3   302  ILE302     -0.1245
     44  CA        32.3560  120.5120   78.9750 C.3   302  ILE302      0.1561
     45  C         33.1900  121.6150   78.3220 C.2   302  ILE302      0.2260
     46  O         32.6510  122.5070   77.6520 O.2   302  ILE302     -0.2867
     47  CB        32.1320  120.8190   80.4710 C.3   302  ILE302      0.0252
     48  CG1       31.1960  119.7690   81.0800 C.3   302  ILE302      0.0019
     49  CG2       31.5170  122.2020   80.6320 C.3   302  ILE302      0.0019
     50  CD1       29.9490  119.4680   80.2190 C.3   302  ILE302      0.0001
     51  N         27.3660  127.4030   89.2760 N.3   325  PHE325     -0.1227
     52  CA        26.4130  127.2880   90.3760 C.3   325  PHE325      0.1736
     53  C         26.6680  125.8900   90.9350 C.2   325  PHE325      0.2596
     54  O         26.2030  124.8940   90.3810 O.2   325  PHE325     -0.2718
     55  CB        24.9730  127.4020   89.8750 C.3   325  PHE325      0.0547
     56  CG        23.9590  127.4230   90.9780 C.ar  325  PHE325     -0.0202
     57  CD1       23.9720  128.4380   91.9300 C.ar  325  PHE325     -0.0042
     58  CD2       23.0070  126.4180   91.0850 C.ar  325  PHE325     -0.0042
     59  CE1       23.0490  128.4540   92.9780 C.ar  325  PHE325     -0.0003
     60  CE2       22.0790  126.4240   92.1300 C.ar  325  PHE325     -0.0003
     61  CZ        22.1020  127.4470   93.0790 C.ar  325  PHE325     -0.0000
     62  N         27.4200  125.8250   92.0260 N.am  326  GLY326     -0.1942
     63  CA        27.7760  124.5440   92.6040 C.3   326  GLY326      0.2014
     64  C         29.2810  124.4460   92.4320 C.2   326  GLY326      0.2639
     65  O         29.8120  124.8630   91.3980 O.2   326  GLY326     -0.2714
     66  N         29.9780  123.9120   93.4290 N.am  327  ALA327     -0.1963
     67  CA        31.4270  123.8100   93.3460 C.3   327  ALA327      0.1728
     68  C         31.9730  122.4860   93.8760 C.2   327  ALA327      0.2617
     69  O         32.9760  122.4640   94.5900 O.2   327  ALA327     -0.2715
     70  CB        32.0640  124.9790   94.0970 C.3   327  ALA327      0.0334
     71  N         31.3140  121.3860   93.5250 N.am  328  GLY328     -0.1940
     72  CA        31.7680  120.0810   93.9750 C.3   328  GLY328      0.2014
     73  C         32.8360  119.4890   93.0630 C.2   328  GLY328      0.2639
     74  O         33.7600  120.1870   92.6300 O.2   328  GLY328     -0.2714
     75  N         32.7130  118.2020   92.7540 N.am  329  ALA329     -0.1963
     76  CA        33.6960  117.5470   91.8950 C.3   329  ALA329      0.1728
     77  C         33.6260  118.0440   90.4540 C.2   329  ALA329      0.2616
     78  O         34.6240  118.4920   89.8950 O.2   329  ALA329     -0.2715
     79  CB        33.5020  116.0370   91.9330 C.3   329  ALA329      0.0334
     80  N         32.4420  117.9680   89.8570 N.am  330  ALA330     -0.1963
     81  CA        32.2610  118.3850   88.4720 C.3   330  ALA330      0.1728
     82  C         32.7140  119.8150   88.1990 C.2   330  ALA330      0.2616
     83  O         33.6360  120.0490   87.4110 O.2   330  ALA330     -0.2715
     84  CB        30.7990  118.2180   88.0660 C.3   330  ALA330      0.0334
     85  N         32.0650  120.7710   88.8540 N.am  331  SER331     -0.1950
     86  CA        32.3940  122.1770   88.6640 C.3   331  SER331      0.1924
     87  C         33.8660  122.4850   88.8820 C.2   331  SER331      0.2314
     88  O         34.4900  123.1570   88.0610 O.2   331  SER331     -0.2863
     89  CB        31.5460  123.0580   89.5880 C.3   331  SER331      0.2116
     90  OG        30.1930  123.0700   89.1650 O.3   331  SER331     -0.2180
     91  N         30.0990  129.2310   93.1450 N.3   359  MET359     -0.1230
     92  CA        29.0510  129.3370   94.1530 C.3   359  MET359      0.1702
     93  C         28.7640  127.9150   94.6090 C.2   359  MET359      0.2592
     94  O         28.7430  126.9950   93.7860 O.2   359  MET359     -0.2718
     95  CB        27.7570  129.9170   93.5680 C.3   359  MET359      0.0401
     96  CG        27.7760  131.3980   93.2460 C.3   359  MET359      0.0596
     97  SD        26.0760  132.0230   93.1590 S.3   359  MET359     -0.1393
     98  CE        25.7210  131.8700   91.4560 C.3   359  MET359      0.0692
     99  N         28.5550  127.7310   95.9110 N.am  360  ASP360     -0.1960
    100  CA        28.2330  126.4130   96.4490 C.3   360  ASP360      0.1840
    101  C         27.0360  126.5620   97.3880 C.2   360  ASP360      0.2621
    102  O         26.4510  127.6400   97.4810 O.2   360  ASP360     -0.2715
    103  CB        29.4370  125.8170   97.1880 C.3   360  ASP360      0.1450
    104  CG        29.6660  126.4440   98.5440 C.2   360  ASP360      0.3671
    105  OD1       29.1770  127.5680   98.7810 O.co2 360  ASP360     -0.2456
    106  OD2       30.3520  125.8110   99.3730 O.co2 360  ASP360     -0.2456
    107  N         26.6720  125.4910   98.0840 N.am  361  ILE361     -0.1977
    108  CA        25.5240  125.5360   98.9850 C.3   361  ILE361      0.1596
    109  C         25.5330  126.7320   99.9440 C.2   361  ILE361      0.2287
    110  O         24.4780  127.1600  100.4100 O.2   361  ILE361     -0.2864
    111  CB        25.4120  124.2330   99.8020 C.3   361  ILE361      0.0276
    112  CG1       24.0430  124.1690  100.4810 C.3   361  ILE361      0.0022
    113  CG2       26.5240  124.1730  100.8370 C.3   361  ILE361      0.0022
    114  CD1       23.6700  122.7860  100.9810 C.3   361  ILE361      0.0001
    115  N         26.2550  122.7470   88.1980 N.3   404  ALA404     -0.1231
    116  CA        26.6210  121.3850   88.5780 C.3   404  ALA404      0.1694
    117  C         26.2760  121.2740   90.0670 C.2   404  ALA404      0.2593
    118  O         27.1340  121.0170   90.9260 O.2   404  ALA404     -0.2718
    119  CB        28.1070  121.1370   88.3410 C.3   404  ALA404      0.0304
    120  N         24.9990  121.5180   90.3490 N.am  405  SER405     -0.1938
    121  CA        24.4450  121.4650   91.6970 C.3   405  SER405      0.2055
    122  C         23.1150  120.7470   91.5640 C.2   405  SER405      0.2644
    123  O         22.2050  121.2340   90.8940 O.2   405  SER405     -0.2714
    124  CB        24.1800  122.8700   92.2260 C.3   405  SER405      0.2130
    125  OG        23.0800  123.4440   91.5360 O.3   405  SER405     -0.2179
    126  N         23.0050  119.5960   92.2020 N.am  406  THR406     -0.1936
    127  CA        21.7950  118.7820   92.1580 C.3   406  THR406      0.2028
    128  C         20.4470  119.4870   92.3880 C.2   406  THR406      0.2642
    129  O         19.4300  118.8170   92.5850 O.2   406  THR406     -0.2714
    130  CB        21.9080  117.6640   93.1850 C.3   406  THR406      0.1808
    131  OG1       22.2680  118.2330   94.4540 O.3   406  THR406     -0.2208
    132  CG2       22.9640  116.6530   92.7500 C.3   406  THR406      0.0379
    133  N         20.4250  120.8170   92.3560 N.am  407  VAL407     -0.1977
    134  CA        19.1910  121.5640   92.5910 C.3   407  VAL407      0.1596
    135  C         18.3200  121.7940   91.3590 C.2   407  VAL407      0.2287
    136  O         18.6660  122.5710   90.4670 O.2   407  VAL407     -0.2864
    137  CB        19.4930  122.9280   93.2290 C.3   407  VAL407      0.0276
    138  CG1       20.2400  122.7310   94.5240 C.3   407  VAL407      0.0022
    139  CG2       20.3210  123.7640   92.2930 C.3   407  VAL407      0.0022
    140  N         24.0140  120.9570   83.9860 N.3   431  LEU431     -0.1231
    141  CA        24.6400  119.6390   84.0190 C.3   431  LEU431      0.1693
    142  C         24.1480  118.6020   85.0180 C.2   431  LEU431      0.2593
    143  O         24.4250  117.4160   84.8500 O.2   431  LEU431     -0.2718
    144  CB        26.1590  119.8200   84.1860 C.3   431  LEU431      0.0284
    145  CG        26.9920  120.2220   82.9550 C.3   431  LEU431      0.0019
    146  CD1       26.1740  121.0270   81.9770 C.3   431  LEU431      0.0001
    147  CD2       28.2180  120.9950   83.4060 C.3   431  LEU431      0.0001
    148  N         23.4350  119.0160   86.0560 N.am  432  SER432     -0.1938
    149  CA        22.9610  118.0420   87.0370 C.3   432  SER432      0.2055
    150  C         22.1330  116.9480   86.3820 C.2   432  SER432      0.2643
    151  O         21.3540  117.2120   85.4710 O.2   432  SER432     -0.2714
    152  CB        22.1470  118.7340   88.1280 C.3   432  SER432      0.2130
    153  OG        23.0040  119.4940   88.9610 O.3   432  SER432     -0.2179
    154  N         22.3190  115.7180   86.8490 N.am  433  ASN433     -0.1971
    155  CA        21.6060  114.5650   86.3110 C.3   433  ASN433      0.1688
    156  C         20.7070  113.9480   87.3840 C.2   433  ASN433      0.2292
    157  O         20.9980  114.0480   88.5730 O.2   433  ASN433     -0.2864
    158  CB        22.6140  113.5130   85.8350 C.3   433  ASN433      0.1181
    159  CG        23.6090  114.0620   84.8200 C.2   433  ASN433      0.2629
    160  OD1       23.2360  114.4560   83.7150 O.2   433  ASN433     -0.2716
    161  ND2       24.8800  114.0840   85.1930 N.am  433  ASN433     -0.0877
    162  N         23.4040  117.8580   80.9950 N.3   458  GLY458     -0.1225
    163  CA        24.0080  116.5860   81.3330 C.3   458  GLY458      0.1811
    164  C         23.1190  115.4770   80.8080 C.2   458  GLY458      0.2280
    165  O         23.5980  114.4710   80.2880 O.2   458  GLY458     -0.2866
    166  N         26.3600  117.1510   77.2520 N.3   476  GLY476     -0.1225
    167  CA        27.7940  117.1450   77.5000 C.3   476  GLY476      0.1811
    168  C         28.2040  115.7510   77.9460 C.2   476  GLY476      0.2280
    169  O         28.6320  115.5420   79.0880 O.2   476  GLY476     -0.2866
    170  N         30.3730  112.4360   78.3110 N.3   478  ASN478     -0.1240
    171  CA        31.7780  112.0390   78.4000 C.3   478  ASN478      0.1653
    172  C         32.1710  111.1260   77.2460 C.2   478  ASN478      0.2266
    173  O         33.3350  111.0780   76.8550 O.2   478  ASN478     -0.2867
    174  CB        32.0390  111.3210   79.7260 C.3   478  ASN478      0.1155
    175  CG        32.1730  112.2820   80.8890 C.2   478  ASN478      0.2627
    176  OD1       31.7370  113.4300   80.8070 O.2   478  ASN478     -0.2716
    177  ND2       32.7710  111.8150   81.9830 N.am  478  ASN478     -0.0877
@<TRIPOS>BOND
     1   173   172    2
     2   172   171    1
     3   166   167    1
     4   167   168    1
     5    46    45    2
     6   168   169    2
     7   170   171    1
     8    45    44    1
     9   171   174    1
    10    43    44    1
    11    44    47    1
    12   174   175    1
    13    50    48    1
    14   165   164    2
    15    47    49    1
    16    47    48    1
    17   176   175    2
    18   164   163    1
    19   175   177   am
    20   162   163    1
    21    39    38    2
    22   146   145    1
    23    38    37    1
    24    36    37    1
    25    37    40    1
    26   145   147    1
    27   145   144    1
    28   160   159    2
    29    40    42    1
    30    40    41    1
    31   140   141    1
    32   141   144    1
    33   141   142    1
    34   159   161   am
    35   159   158    1
    36   143   142    2
    37   142   148   am
    38    28    29    1
    39   151   150    2
    40   158   155    1
    41   148   149    1
    42    29    30    1
    43    29    32    1
    44    19    17    1
    45    31    30    2
    46   155   154    1
    47   155   156    1
    48   150   154   am
    49   150   149    1
    50    34    33   ar
    51   149   152    1
    52    33    32    1
    53    33    35   ar
    54   156   157    2
    55    83    82    2
    56    17    16    1
    57    17    18    1
    58    16    13    1
    59    88    87    2
    60    84    81    1
    61   152   153    1
    62   115   116    1
    63    82    81    1
    64    82    85   am
    65   119   116    1
    66    81    80    1
    67   116   117    1
    68    15    14    2
    69    86    85    1
    70    86    87    1
    71    86    89    1
    72    90    89    1
    73    11     9    1
    74    51    52    1
    75    13    14    1
    76    13    12    1
    77    80    77   am
    78    55    52    1
    79    55    56    1
    80    78    77    2
    81   117   120   am
    82   117   118    2
    83   120   121    1
    84    52    53    1
    85    54    53    2
    86     9    10    1
    87     9     8    2
    88    77    76    1
    89   136   135    2
    90   123   122    2
    91    53    62   am
    92    56    58   ar
    93    56    57   ar
    94    58    60   ar
    95   135   134    1
    96    65    64    2
    97    98    97    1
    98     8     7    1
    99     4     3    2
   100   125   124    1
   101   122   121    1
   102   122   126   am
   103   121   124    1
   104    76    79    1
   105    76    75    1
   106    57    59   ar
   107    62    63    1
   108    60    61   ar
   109   127   126    1
   110   127   128    1
   111   127   130    1
   112   139   137    1
   113   133   128   am
   114   133   134    1
   115   128   129    2
   116     3     2    1
   117    64    63    1
   118    64    66   am
   119   134   137    1
   120    74    73    2
   121   132   130    1
   122    75    73   am
   123    26    25    2
   124     7     6    1
   125    59    61   ar
   126    73    72    1
   127    91    92    1
   128    97    96    1
   129   130   131    1
   130   137   138    1
   131    96    95    1
   132    67    66    1
   133    67    68    1
   134    67    70    1
   135    71    68   am
   136    71    72    1
   137    95    92    1
   138     6     5    1
   139    94    93    2
   140     2     5    1
   141     2     1    1
   142    68    69    2
   143    25    27   am
   144    25    24    1
   145    92    93    1
   146    23    22    2
   147    93    99   am
   148    21    24    1
   149    21    20    1
   150    21    22    1
   151    99   100    1
   152   100   103    1
   153   100   101    1
   154   103   104    1
   155   101   102    2
   156   101   107   am
   157   107   108    1
   158   104   105   ar
   159   104   106   ar
   160   108   111    1
   161   108   109    1
   162   111   112    1
   163   111   113    1
   164   109   110    2
   165   112   114    1
