@<TRIPOS>MOLECULE
tmp/1o0vB00.pdb
 188 174 0 0 0
SMALL
GASTEIGER

@<TRIPOS>ATOM
      1  N         52.3720   27.9330   38.5340 N.3   100  LYS100     -0.1245
      2  CA        51.6130   27.2520   37.5130 C.3   100  LYS100      0.1561
      3  C         51.2050   25.9150   38.0920 C.2   100  LYS100      0.2260
      4  O         51.7020   25.5070   39.1470 O.2   100  LYS100     -0.2867
      5  CB        52.4580   27.0200   36.2630 C.3   100  LYS100      0.0271
      6  CG        51.6600   26.3760   35.1270 C.3   100  LYS100      0.0035
      7  CD        52.5470   25.8710   34.0130 C.3   100  LYS100      0.0206
      8  CE        53.4140   24.7100   34.4790 C.3   100  LYS100      0.1093
      9  NZ        52.6980   23.4030   34.5740 N.3   100  LYS100     -0.1314
     10  N         53.7000   20.1900   37.6440 N.3   103  ALA103     -0.1245
     11  CA        53.9140   19.1860   36.6150 C.3   103  ALA103      0.1562
     12  C         53.5280   17.7900   37.0940 C.2   103  ALA103      0.2260
     13  O         53.9190   17.3600   38.1800 O.2   103  ALA103     -0.2867
     14  CB        55.3760   19.2110   36.1720 C.3   103  ALA103      0.0290
     15  N         55.8750   13.7990   30.0530 N.3   108  ARG108     -0.1245
     16  CA        55.7250   13.3170   28.6710 C.3   108  ARG108      0.1563
     17  C         56.9810   12.9050   27.9080 C.2   108  ARG108      0.2260
     18  O         58.0600   12.7330   28.4760 O.2   108  ARG108     -0.2867
     19  CB        55.0070   14.3740   27.8320 C.3   108  ARG108      0.0307
     20  CG        53.5840   14.6710   28.2530 C.3   108  ARG108      0.0489
     21  CD        53.1270   15.9870   27.6410 C.3   108  ARG108      0.2205
     22  NE        51.7150   16.2640   27.8900 N.pl3 108  ARG108     -0.0865
     23  CZ        51.1240   17.4220   27.6090 C.cat 108  ARG108      0.5346
     24  NH1       51.8260   18.4130   27.0720 N.pl3 108  ARG108      0.1354
     25  NH2       49.8310   17.5860   27.8580 N.pl3 108  ARG108      0.1354
     26  N         58.1550   15.3650   21.1240 N.3   111  SER111     -0.1217
     27  CA        57.2510   15.5220   19.9890 C.3   111  SER111      0.1889
     28  C         57.8680   16.5080   19.0040 C.2   111  SER111      0.2288
     29  O         58.3010   17.5920   19.3940 O.2   111  SER111     -0.2866
     30  CB        55.9070   16.0700   20.4550 C.3   111  SER111      0.2089
     31  OG        56.0390   17.4190   20.8720 O.3   111  SER111     -0.2183
     32  N         57.5850   18.8510   15.4300 N.3   113  TYR113     -0.1241
     33  CA        56.6840   19.5170   14.5000 C.3   113  TYR113      0.1605
     34  C         57.4660   20.2140   13.3890 C.2   113  TYR113      0.2264
     35  O         58.5240   20.7880   13.6340 O.2   113  TYR113     -0.2867
     36  CB        55.8460   20.5500   15.2490 C.3   113  TYR113      0.0534
     37  CG        55.2750   20.0300   16.5400 C.ar  113  TYR113     -0.0201
     38  CD1       54.2530   19.0810   16.5410 C.ar  113  TYR113     -0.0009
     39  CD2       55.7830   20.4550   17.7690 C.ar  113  TYR113     -0.0009
     40  CE1       53.7460   18.5610   17.7380 C.ar  113  TYR113      0.0417
     41  CE2       55.2860   19.9430   18.9750 C.ar  113  TYR113      0.0417
     42  CZ        54.2680   18.9960   18.9500 C.ar  113  TYR113      0.1957
     43  OH        53.7730   18.4840   20.1290 O.3   113  TYR113     -0.2866
     44  N         56.9370   23.1070   10.6090 N.3   115  SER115     -0.1202
     45  CA        56.1150   24.2070   10.1090 C.3   115  SER115      0.2020
     46  C         56.2210   24.3540    8.6040 C.2   115  SER115      0.2619
     47  O         56.7870   23.5170    7.9200 O.2   115  SER115     -0.2717
     48  CB        56.5280   25.5290   10.7560 C.3   115  SER115      0.2103
     49  OG        57.6780   26.0640   10.1210 O.3   115  SER115     -0.2182
     50  N         55.6960   25.4490    8.0910 N.am  116  ARG116     -0.1965
     51  CA        55.7130   25.6720    6.6630 C.3   116  ARG116      0.1714
     52  C         55.9800   27.1600    6.4080 C.2   116  ARG116      0.2458
     53  O         55.6900   28.0070    7.2580 O.2   116  ARG116     -0.2730
     54  CB        54.3580   25.2210    6.1230 C.3   116  ARG116      0.0347
     55  CG        54.2280   25.1270    4.6310 C.3   116  ARG116      0.0492
     56  CD        53.0140   24.2860    4.2800 C.3   116  ARG116      0.2205
     57  NE        51.8400   24.7360    5.0230 N.pl3 116  ARG116     -0.0865
     58  CZ        50.7550   23.9980    5.2360 C.cat 116  ARG116      0.5346
     59  NH1       50.6850   22.7610    4.7620 N.pl3 116  ARG116      0.1354
     60  NH2       49.7400   24.4990    5.9330 N.pl3 116  ARG116      0.1354
     61  N         56.5590   27.5010    5.2460 N.am  117  PRO117     -0.2716
     62  CA        56.8300   28.9140    4.9750 C.3   117  PRO117      0.1536
     63  C         55.5720   29.7230    5.2040 C.2   117  PRO117      0.2599
     64  O         54.4830   29.2820    4.8420 O.2   117  PRO117     -0.2715
     65  CB        57.2280   28.9180    3.5050 C.3   117  PRO117      0.0310
     66  CG        57.8350   27.5920    3.3240 C.3   117  PRO117      0.0237
     67  CD        56.9060   26.6790    4.0800 C.3   117  PRO117      0.0939
     68  N         55.7160   30.8930    5.8100 N.am  118  SER118     -0.1937
     69  CA        54.5700   31.7450    6.0470 C.3   118  SER118      0.2040
     70  C         54.3420   32.5000    4.7530 C.2   118  SER118      0.2485
     71  O         55.2890   32.8030    4.0300 O.2   118  SER118     -0.2729
     72  CB        54.8590   32.7420    7.1650 C.3   118  SER118      0.2129
     73  OG        55.6940   33.7870    6.7020 O.3   118  SER118     -0.2179
     74  N         53.0830   32.7980    4.4210 N.am  119  PRO119     -0.2726
     75  CA        52.8730   33.5360    3.1740 C.3   119  PRO119      0.1402
     76  C         53.6840   34.8430    3.1460 C.2   119  PRO119      0.2269
     77  O         54.1590   35.2700    2.0960 O.2   119  PRO119     -0.2865
     78  CB        51.3660   33.7680    3.1790 C.3   119  PRO119      0.0296
     79  CG        50.8690   32.5140    3.8110 C.3   119  PRO119      0.0237
     80  CD        51.8030   32.3290    4.9790 C.3   119  PRO119      0.0939
     81  N         56.7680   35.6200    4.5560 N.3   121  ASP121     -0.1239
     82  CA        58.1670   35.3830    4.2270 C.3   121  ASP121      0.1674
     83  C         58.2560   34.9830    2.7720 C.2   121  ASP121      0.2266
     84  O         59.1240   35.4260    2.0290 O.2   121  ASP121     -0.2867
     85  CB        58.7140   34.2430    5.0670 C.3   121  ASP121      0.1410
     86  CG        58.9160   34.6300    6.4910 C.2   121  ASP121      0.3668
     87  OD1       59.1060   33.7270    7.3270 O.co2 121  ASP121     -0.2456
     88  OD2       58.8930   35.8390    6.7840 O.co2 121  ASP121     -0.2456
     89  N         60.8490   21.8230   14.9900 N.3   133  LEU133     -0.1245
     90  CA        60.8570   22.0090   16.4370 C.3   133  LEU133      0.1561
     91  C         60.6390   20.7070   17.1850 C.2   133  LEU133      0.2260
     92  O         59.6360   20.0240   16.9930 O.2   133  LEU133     -0.2867
     93  CB        59.7780   23.0200   16.8450 C.3   133  LEU133      0.0270
     94  CG        59.3590   23.1070   18.3240 C.3   133  LEU133      0.0019
     95  CD1       60.4800   23.6920   19.1670 C.3   133  LEU133      0.0001
     96  CD2       58.1030   23.9730   18.4520 C.3   133  LEU133      0.0001
     97  N         60.2760   19.2060   20.9180 N.3   135  VAL135     -0.1231
     98  CA        59.9860   19.6230   22.2810 C.3   135  VAL135      0.1692
     99  C         60.0070   18.5060   23.3240 C.2   135  VAL135      0.2592
    100  O         60.0150   17.3180   22.9830 O.2   135  VAL135     -0.2718
    101  CB        58.6180   20.3340   22.3400 C.3   135  VAL135      0.0266
    102  CG1       58.4520   21.0300   23.6870 C.3   135  VAL135      0.0020
    103  CG2       58.5060   21.3420   21.1990 C.3   135  VAL135      0.0020
    104  N         60.0270   18.9160   24.5950 N.am  136  ASP136     -0.1974
    105  CA        60.0390   18.0040   25.7430 C.3   136  ASP136      0.1709
    106  C         61.2050   17.0190   25.6750 C.2   136  ASP136      0.2293
    107  O         61.0270   15.8090   25.8130 O.2   136  ASP136     -0.2864
    108  CB        58.7060   17.2340   25.8260 C.3   136  ASP136      0.1436
    109  CG        57.5380   18.1070   26.2860 C.2   136  ASP136      0.3671
    110  OD1       56.3810   17.7720   25.9550 O.co2 136  ASP136     -0.2456
    111  OD2       57.7710   19.1150   26.9870 O.co2 136  ASP136     -0.2456
    112  N         63.5850   25.0490   28.7540 N.3   166  GLN166     -0.1245
    113  CA        62.3310   25.6420   29.1810 C.3   166  GLN166      0.1566
    114  C         62.2190   25.6750   30.7020 C.2   166  GLN166      0.2260
    115  O         62.9410   24.9570   31.4010 O.2   166  GLN166     -0.2867
    116  CB        61.1740   24.8730   28.5470 C.3   166  GLN166      0.0367
    117  CG        61.2860   24.8380   27.0330 C.3   166  GLN166      0.0905
    118  CD        61.3450   26.2340   26.4240 C.2   166  GLN166      0.2608
    119  OE1       61.7180   26.4000   25.2610 O.2   166  GLN166     -0.2717
    120  NE2       60.9690   27.2430   27.2070 N.am  166  GLN166     -0.0878
    121  N         60.1190   24.4600   32.5190 N.3   168  ASN168     -0.1240
    122  CA        59.6530   23.1840   33.0430 C.3   168  ASN168      0.1653
    123  C         60.7440   22.1510   32.9090 C.2   168  ASN168      0.2266
    124  O         60.4720   20.9480   32.8940 O.2   168  ASN168     -0.2867
    125  CB        58.4200   22.6990   32.2870 C.3   168  ASN168      0.1155
    126  CG        58.6080   22.7270   30.7890 C.2   168  ASN168      0.2627
    127  OD1       59.6590   22.3480   30.2760 O.2   168  ASN168     -0.2716
    128  ND2       57.5680   23.1700   30.0890 N.am  168  ASN168     -0.0877
    129  N         62.2600   21.1090   30.4380 N.3   170  THR170     -0.1218
    130  CA        62.3540   20.3720   29.1770 C.3   170  THR170      0.1862
    131  C         63.2970   21.1240   28.2600 C.2   170  THR170      0.2287
    132  O         63.7530   22.2180   28.5890 O.2   170  THR170     -0.2866
    133  CB        61.0120   20.2500   28.4330 C.3   170  THR170      0.1770
    134  OG1       60.5950   21.5470   27.9910 O.3   170  THR170     -0.2211
    135  CG2       59.9550   19.6340   29.3210 C.3   170  THR170      0.0375
    136  N         64.1040   22.4320   24.1540 N.3   172  THR172     -0.1218
    137  CA        63.5550   22.7260   22.8390 C.3   172  THR172      0.1862
    138  C         64.6870   22.9340   21.8350 C.2   172  THR172      0.2287
    139  O         65.5900   23.7390   22.0760 O.2   172  THR172     -0.2866
    140  CB        62.7070   24.0030   22.8880 C.3   172  THR172      0.1770
    141  OG1       61.4790   23.7260   23.5640 O.3   172  THR172     -0.2211
    142  CG2       62.4140   24.5160   21.5020 C.3   172  THR172      0.0375
    143  N         46.7210   28.6660    4.2450 N.3   247  ASP247     -0.1225
    144  CA        47.8660   29.5200    4.5350 C.3   247  ASP247      0.1805
    145  C         47.6550   30.9870    4.2340 C.2   247  ASP247      0.2598
    146  O         47.3750   31.3450    3.0910 O.2   247  ASP247     -0.2718
    147  CB        49.0550   29.0400    3.7390 C.3   247  ASP247      0.1424
    148  CG        49.2730   27.5750    3.8880 C.2   247  ASP247      0.3668
    149  OD1       49.8230   27.1830    4.9400 O.co2 247  ASP247     -0.2456
    150  OD2       48.8750   26.8260    2.9600 O.co2 247  ASP247     -0.2456
    151  N         47.8220   31.8310    5.2550 N.am  248  ILE248     -0.1966
    152  CA        47.6710   33.2810    5.1030 C.3   248  ILE248      0.1727
    153  C         48.3380   34.0900    6.2350 C.2   248  ILE248      0.2616
    154  O         48.3180   33.7010    7.3960 O.2   248  ILE248     -0.2715
    155  CB        46.1710   33.6730    5.0040 C.3   248  ILE248      0.0290
    156  CG1       46.0350   35.0650    4.3820 C.3   248  ILE248      0.0022
    157  CG2       45.5220   33.6570    6.3820 C.3   248  ILE248      0.0023
    158  CD1       44.6040   35.4400    4.0290 C.3   248  ILE248      0.0001
    159  N         48.9390   35.2190    5.8810 N.am  249  SER249     -0.1950
    160  CA        49.5940   36.0950    6.8550 C.3   249  SER249      0.1924
    161  C         48.7590   37.3720    6.9380 C.2   249  SER249      0.2314
    162  O         48.3560   37.9100    5.9150 O.2   249  SER249     -0.2863
    163  CB        51.0300   36.4500    6.4000 C.3   249  SER249      0.2116
    164  OG        51.8620   35.3020    6.2470 O.3   249  SER249     -0.2180
    165  N         52.9730   41.9340   15.8140 N.3   261  ASP261     -0.1239
    166  CA        51.9620   40.8760   15.8040 C.3   261  ASP261      0.1674
    167  C         51.1100   40.9600   17.0740 C.2   261  ASP261      0.2266
    168  O         49.8910   40.8540   17.0420 O.2   261  ASP261     -0.2867
    169  CB        52.6420   39.5030   15.7530 C.3   261  ASP261      0.1410
    170  CG        53.2240   39.1790   14.3880 C.2   261  ASP261      0.3668
    171  OD1       54.0350   38.2230   14.2950 O.co2 261  ASP261     -0.2456
    172  OD2       52.8640   39.8690   13.4060 O.co2 261  ASP261     -0.2456
    173  N         44.2590   37.8510   15.9870 N.3   266  THR266     -0.1218
    174  CA        43.7610   37.2850   14.7340 C.3   266  THR266      0.1862
    175  C         43.5100   35.7930   14.8370 C.2   266  THR266      0.2287
    176  O         44.3970   35.0380   15.2210 O.2   266  THR266     -0.2866
    177  CB        44.7560   37.5520   13.5860 C.3   266  THR266      0.1770
    178  OG1       45.0060   38.9610   13.5000 O.3   266  THR266     -0.2211
    179  CG2       44.1930   37.0690   12.2550 C.3   266  THR266      0.0375
    180  N         42.4390   31.7520   13.7240 N.3   268  GLN268     -0.1245
    181  CA        43.0540   30.7980   12.8190 C.3   268  GLN268      0.1566
    182  C         41.9570   30.4350   11.8280 C.2   268  GLN268      0.2260
    183  O         40.7860   30.3670   12.2020 O.2   268  GLN268     -0.2867
    184  CB        43.5530   29.5650   13.5860 C.3   268  GLN268      0.0367
    185  CG        44.7630   29.8350   14.4930 C.3   268  GLN268      0.0905
    186  CD        46.0470   30.1880   13.7190 C.2   268  GLN268      0.2608
    187  OE1       46.5940   29.3600   12.9840 O.2   268  GLN268     -0.2717
    188  NE2       46.5290   31.4180   13.8890 N.am  268  GLN268     -0.0878
@<TRIPOS>BOND
     1    84    83    2
     2    77    76    2
     3    83    82    1
     4   150   148   ar
     5   146   145    2
     6    76    75    1
     7    75    78    1
     8    75    74    1
     9    78    79    1
    10    66    65    1
    11    66    67    1
    12    65    62    1
    13   147   148    1
    14   147   144    1
    15    79    80    1
    16   148   149   ar
    17   158   156    1
    18    71    70    2
    19    67    61    1
    20    82    81    1
    21    82    85    1
    22   145   144    1
    23   145   151   am
    24   143   144    1
    25    56    55    1
    26    56    57    1
    27   156   155    1
    28    74    70   am
    29    74    80    1
    30    55    54    1
    31    70    69    1
    32    59    58    1
    33    64    63    2
    34    62    63    1
    35    62    61    1
    36   155   152    1
    37   155   157    1
    38    57    58    2
    39    85    86    1
    40   152   151    1
    41   152   153    1
    42    63    68   am
    43    58    60    1
    44    61    52   am
    45    68    69    1
    46   159   153   am
    47   159   160    1
    48   162   161    2
    49    69    72    1
    50    54    51    1
    51   153   154    2
    52   164   163    1
    53   163   160    1
    54    52    51    1
    55    52    53    2
    56    86    88   ar
    57    86    87   ar
    58    51    50    1
    59    73    72    1
    60   160   161    1
    61    47    46    2
    62    50    46   am
    63    46    45    1
    64    45    44    1
    65    45    48    1
    66    49    48    1
    67   182   183    2
    68   182   181    1
    69   179   177    1
    70   181   184    1
    71   181   180    1
    72   187   186    2
    73    34    35    2
    74    34    33    1
    75   172   170   ar
    76   178   177    1
    77   184   185    1
    78   177   174    1
    79   186   188   am
    80   186   185    1
    81   171   170   ar
    82   170   169    1
    83    33    36    1
    84    33    32    1
    85   174   175    1
    86   174   173    1
    87   175   176    2
    88    89    90    1
    89    36    37    1
    90   169   166    1
    91   166   165    1
    92   166   167    1
    93    90    93    1
    94    90    91    1
    95    37    38   ar
    96    37    39   ar
    97    38    40   ar
    98    93    94    1
    99    92    91    2
   100   168   167    2
   101    40    42   ar
   102    39    41   ar
   103    94    96    1
   104    94    95    1
   105    42    41   ar
   106    42    43    1
   107    28    29    2
   108    28    27    1
   109    27    30    1
   110    27    26    1
   111    30    31    1
   112    97    98    1
   113   103   101    1
   114   142   140    1
   115   138   139    2
   116   138   137    1
   117    98   101    1
   118    98    99    1
   119   101   102    1
   120   137   140    1
   121   137   136    1
   122   140   141    1
   123   100    99    2
   124    99   104   am
   125   104   105    1
   126   119   118    2
   127   106   105    1
   128   106   107    2
   129   105   108    1
   130   108   109    1
   131   110   109   ar
   132   109   111   ar
   133   118   117    1
   134   118   120   am
   135   117   116    1
   136    24    23    1
   137    23    25    1
   138    23    22    2
   139    21    22    1
   140    21    20    1
   141    19    20    1
   142    19    16    1
   143    17    18    2
   144    17    16    1
   145   134   133    1
   146   131   132    2
   147   131   130    1
   148   133   130    1
   149   133   135    1
   150   116   113    1
   151    16    15    1
   152   112   113    1
   153   130   129    1
   154   113   114    1
   155   128   126   am
   156   127   126    2
   157   114   115    2
   158   126   125    1
   159   125   122    1
   160   121   122    1
   161   124   123    2
   162   123   122    1
   163     7     8    1
   164     7     6    1
   165     8     9    1
   166     6     5    1
   167    14    11    1
   168     5     2    1
   169    11    12    1
   170    11    10    1
   171    12    13    2
   172     2     3    1
   173     2     1    1
   174     3     4    2
