@<TRIPOS>MOLECULE
tmp/1o1rB00.pdb
 178 173 0 0 0
SMALL
GASTEIGER

@<TRIPOS>ATOM
      1  N        176.7060  129.1470   31.8930 N.3    80  TRP80      -0.1241
      2  CA       177.6460  128.6650   32.9110 C.3    80  TRP80       0.1605
      3  C        177.4660  129.4100   34.2040 C.2    80  TRP80       0.2264
      4  O        177.5050  128.8160   35.2690 O.2    80  TRP80      -0.2867
      5  CB       179.0910  128.8340   32.4800 C.3    80  TRP80       0.0550
      6  CG       179.6190  127.7030   31.6630 C.ar   80  TRP80       0.0003
      7  CD1      180.0640  127.7660   30.3710 C.ar   80  TRP80       0.0946
      8  CD2      179.7950  126.3340   32.0840 C.ar   80  TRP80       0.0152
      9  NE1      180.5110  126.5310   29.9680 N.ar   80  TRP80      -0.2442
     10  CE2      180.3540  125.6340   30.9950 C.ar   80  TRP80       0.0810
     11  CE3      179.5360  125.6380   33.2700 C.ar   80  TRP80       0.0012
     12  CZ2      180.6600  124.2580   31.0610 C.ar   80  TRP80       0.0191
     13  CZ3      179.8450  124.2660   33.3310 C.ar   80  TRP80       0.0001
     14  CH2      180.3980  123.6010   32.2330 C.ar   80  TRP80       0.0015
     15  N        179.4430  123.1400   25.6450 N.3   129  ALA129     -0.1245
     16  CA       179.6870  123.5320   27.0300 C.3   129  ALA129      0.1562
     17  C        178.4450  124.2130   27.6030 C.2   129  ALA129      0.2260
     18  O        177.8980  123.7510   28.5990 O.2   129  ALA129     -0.2867
     19  CB       180.9140  124.4000   27.1350 C.3   129  ALA129      0.0290
     20  N        175.5280  121.8510   28.1060 N.3   132  TYR132     -0.1241
     21  CA       175.6760  121.0680   29.3250 C.3   132  TYR132      0.1605
     22  C        175.2730  121.9120   30.5420 C.2   132  TYR132      0.2264
     23  O        174.5810  121.4460   31.4430 O.2   132  TYR132     -0.2867
     24  CB       177.1370  120.6130   29.4710 C.3   132  TYR132      0.0534
     25  CG       177.5330  120.1730   30.8720 C.ar  132  TYR132     -0.0201
     26  CD1      177.2470  118.8920   31.3220 C.ar  132  TYR132     -0.0009
     27  CD2      178.2010  121.0380   31.7400 C.ar  132  TYR132     -0.0009
     28  CE1      177.6140  118.4700   32.6020 C.ar  132  TYR132      0.0417
     29  CE2      178.5770  120.6230   33.0310 C.ar  132  TYR132      0.0417
     30  CZ       178.2810  119.3340   33.4460 C.ar  132  TYR132      0.1957
     31  OH       178.6910  118.8740   34.6790 O.3   132  TYR132     -0.2866
     32  N        182.8630  120.2580   19.7250 N.3   171  MET171     -0.1245
     33  CA       182.2580  121.0710   20.8000 C.3   171  MET171      0.1570
     34  C        181.0980  121.8750   20.2270 C.2   171  MET171      0.2261
     35  O        180.1030  122.1340   20.8930 O.2   171  MET171     -0.2867
     36  CB       183.2850  122.0110   21.4300 C.3   171  MET171      0.0387
     37  CG       184.2250  121.3410   22.4430 C.3   171  MET171      0.0595
     38  SD       183.3570  120.5320   23.8200 S.3   171  MET171     -0.1393
     39  CE       182.8980  121.9040   24.8680 C.3   171  MET171      0.0692
     40  N        185.9330  116.7050   26.6250 N.3   180  ARG180     -0.1245
     41  CA       184.8370  117.4440   27.2340 C.3   180  ARG180      0.1563
     42  C        183.5440  117.2450   26.4580 C.2   180  ARG180      0.2260
     43  O        182.4750  117.0810   27.0530 O.2   180  ARG180     -0.2867
     44  CB       185.1370  118.9530   27.3060 C.3   180  ARG180      0.0307
     45  CG       186.3090  119.3880   28.1840 C.3   180  ARG180      0.0489
     46  CD       186.5620  120.9070   28.0350 C.3   180  ARG180      0.2205
     47  NE       186.8670  121.2630   26.6450 N.pl3 180  ARG180     -0.0865
     48  CZ       186.4710  122.3750   26.0180 C.cat 180  ARG180      0.5346
     49  NH1      186.8010  122.5630   24.7450 N.pl3 180  ARG180      0.1354
     50  NH2      185.7900  123.3240   26.6560 N.pl3 180  ARG180      0.1354
     51  N        181.5990  114.0520   27.2030 N.3   183  TYR183     -0.1227
     52  CA       180.9080  114.1550   28.4930 C.3   183  TYR183      0.1736
     53  C        179.6900  115.0900   28.4580 C.2   183  TYR183      0.2595
     54  O        178.6500  114.7810   29.0500 O.2   183  TYR183     -0.2718
     55  CB       181.8930  114.5930   29.5970 C.3   183  TYR183      0.0548
     56  CG       181.2320  115.0320   30.8870 C.ar  183  TYR183     -0.0200
     57  CD1      180.6710  114.0970   31.7670 C.ar  183  TYR183     -0.0009
     58  CD2      181.1700  116.3820   31.2290 C.ar  183  TYR183     -0.0009
     59  CE1      180.0600  114.5030   32.9620 C.ar  183  TYR183      0.0417
     60  CE2      180.5700  116.7980   32.4210 C.ar  183  TYR183      0.0417
     61  CZ       180.0150  115.8560   33.2800 C.ar  183  TYR183      0.1957
     62  OH       179.4080  116.2730   34.4420 O.3   183  TYR183     -0.2866
     63  N        179.8330  116.2510   27.8180 N.am  184  CYS184     -0.1970
     64  CA       178.7200  117.1930   27.7220 C.3   184  CYS184      0.1712
     65  C        177.5700  116.4990   27.0170 C.2   184  CYS184      0.2296
     66  O        176.4160  116.6550   27.4150 O.2   184  CYS184     -0.2864
     67  CB       179.1140  118.4520   26.9340 C.3   184  CYS184      0.0983
     68  SG       180.3070  119.5250   27.7570 S.3   184  CYS184     -0.0798
     69  N        195.3240  115.1880   32.2730 N.3   226  HIS226     -0.1241
     70  CA       194.8330  116.3620   32.9990 C.3   226  HIS226      0.1621
     71  C        193.5690  116.0470   33.7900 C.2   226  HIS226      0.2264
     72  O        192.7430  115.2470   33.3560 O.2   226  HIS226     -0.2867
     73  CB       194.5580  117.5130   32.0250 C.3   226  HIS226      0.0745
     74  CG       194.4230  118.8470   32.6940 C.ar  226  HIS226      0.0817
     75  ND1      193.2540  119.2590   33.3000 N.ar  226  HIS226     -0.2268
     76  CD2      195.3200  119.8460   32.8850 C.ar  226  HIS226      0.1154
     77  CE1      193.4370  120.4500   33.8410 C.ar  226  HIS226      0.1986
     78  NE2      194.6810  120.8290   33.6030 N.ar  226  HIS226     -0.2212
     79  N        190.7920  117.9460   34.5070 N.3   228  GLY228     -0.1210
     80  CA       189.5030  118.2960   33.9300 C.3   228  GLY228      0.1956
     81  C        189.0800  117.2870   32.8730 C.2   228  GLY228      0.2611
     82  O        187.9280  116.8560   32.8350 O.2   228  GLY228     -0.2717
     83  N        190.0230  116.9140   32.0110 N.am  229  TYR229     -0.1976
     84  CA       189.7620  115.9450   30.9570 C.3   229  TYR229      0.1639
     85  C        189.5460  114.5610   31.5100 C.2   229  TYR229      0.2290
     86  O        188.6700  113.8460   31.0160 O.2   229  TYR229     -0.2864
     87  CB       190.8870  115.9240   29.9350 C.3   229  TYR229      0.0560
     88  CG       190.8990  117.1590   29.0980 C.ar  229  TYR229     -0.0198
     89  CD1      192.0510  117.9210   28.9550 C.ar  229  TYR229     -0.0009
     90  CD2      189.7490  117.5660   28.4370 C.ar  229  TYR229     -0.0009
     91  CE1      192.0580  119.0650   28.1600 C.ar  229  TYR229      0.0417
     92  CE2      189.7380  118.7050   27.6470 C.ar  229  TYR229      0.0417
     93  CZ       190.8940  119.4530   27.5060 C.ar  229  TYR229      0.1957
     94  OH       190.8750  120.5830   26.7030 O.3   229  TYR229     -0.2866
     95  N        185.9980  114.2440   32.8420 N.3   232  CYS232     -0.1235
     96  CA       185.0720  114.1530   31.6930 C.3   232  CYS232      0.1677
     97  C        185.0850  112.7880   31.0310 C.2   232  CYS232      0.2270
     98  O        184.0330  112.2520   30.7210 O.2   232  CYS232     -0.2867
     99  CB       185.3680  115.2260   30.6370 C.3   232  CYS232      0.0956
    100  SG       185.0050  116.9290   31.1300 S.3   232  CYS232     -0.0801
    101  N        196.3200  119.8750   38.9030 N.3   268  GLY268     -0.1210
    102  CA       195.6800  119.4400   37.6720 C.3   268  GLY268      0.1956
    103  C        196.4330  118.3990   36.8910 C.2   268  GLY268      0.2611
    104  O        195.8320  117.5600   36.2360 O.2   268  GLY268     -0.2717
    105  N        197.7520  118.4850   36.9290 N.am  269  ARG269     -0.1979
    106  CA       198.6150  117.5450   36.2280 C.3   269  ARG269      0.1597
    107  C        199.9270  117.4490   37.0000 C.2   269  ARG269      0.2287
    108  O        200.2590  118.3400   37.7770 O.2   269  ARG269     -0.2864
    109  CB       198.8380  117.9890   34.7700 C.3   269  ARG269      0.0334
    110  CG       198.7150  119.4840   34.5120 C.3   269  ARG269      0.0492
    111  CD       198.8740  119.8230   33.0180 C.3   269  ARG269      0.2205
    112  NE       198.5780  121.2360   32.7560 N.pl3 269  ARG269     -0.0865
    113  CZ       199.2190  122.0140   31.8780 C.cat 269  ARG269      0.5346
    114  NH1      200.2120  121.5240   31.1440 N.pl3 269  ARG269      0.1354
    115  NH2      198.8920  123.3020   31.7620 N.pl3 269  ARG269      0.1354
    116  N        202.6040  120.4120   38.5230 N.3   272  LYS272     -0.1231
    117  CA       202.0080  121.7300   38.4020 C.3   272  LYS272      0.1693
    118  C        201.5020  122.1370   39.7980 C.2   272  LYS272      0.2591
    119  O        201.7030  121.4060   40.7670 O.2   272  LYS272     -0.2718
    120  CB       200.9460  121.7780   37.2970 C.3   272  LYS272      0.0285
    121  CG       201.5990  121.6350   35.9040 C.3   272  LYS272      0.0035
    122  CD       201.0120  122.5760   34.8570 C.3   272  LYS272      0.0206
    123  CE       201.4000  124.0170   35.1080 C.3   272  LYS272      0.1093
    124  NZ       200.5650  125.0020   34.3530 N.3   272  LYS272     -0.1314
    125  N        200.8940  123.3050   39.9210 N.am  273  LEU273     -0.1980
    126  CA       200.4560  123.7760   41.2250 C.3   273  LEU273      0.1596
    127  C        199.0860  123.3150   41.6400 C.2   273  LEU273      0.2287
    128  O        198.2660  122.9460   40.8120 O.2   273  LEU273     -0.2864
    129  CB       200.4990  125.2980   41.2650 C.3   273  LEU273      0.0297
    130  CG       201.8110  125.8560   40.7230 C.3   273  LEU273      0.0022
    131  CD1      201.7310  127.3610   40.6790 C.3   273  LEU273      0.0001
    132  CD2      202.9730  125.3790   41.5610 C.3   273  LEU273      0.0001
    133  N        195.2850  123.6270   42.9820 N.3   275  ASP275     -0.1239
    134  CA       194.2570  124.5740   42.5670 C.3   275  ASP275      0.1674
    135  C        192.9410  124.0990   43.1430 C.2   275  ASP275      0.2266
    136  O        192.5560  122.9470   42.9820 O.2   275  ASP275     -0.2867
    137  CB       194.1740  124.6340   41.0500 C.3   275  ASP275      0.1410
    138  CG       193.1540  125.6370   40.5510 C.2   275  ASP275      0.3668
    139  OD1      192.1540  125.9280   41.2470 O.co2 275  ASP275     -0.2456
    140  OD2      193.3590  126.1520   39.4360 O.co2 275  ASP275     -0.2456
    141  N        190.1780  121.8980   41.2910 N.3   278  TYR278     -0.1241
    142  CA       190.4790  120.4880   41.1660 C.3   278  TYR278      0.1605
    143  C        189.9860  119.6970   42.3680 C.2   278  TYR278      0.2264
    144  O        190.1240  118.4750   42.4130 O.2   278  TYR278     -0.2867
    145  CB       191.9680  120.2640   40.9530 C.3   278  TYR278      0.0534
    146  CG       192.4490  120.7880   39.6190 C.ar  278  TYR278     -0.0201
    147  CD1      193.5480  121.6350   39.5460 C.ar  278  TYR278     -0.0009
    148  CD2      191.7430  120.5140   38.4360 C.ar  278  TYR278     -0.0009
    149  CE1      193.9300  122.2110   38.3430 C.ar  278  TYR278      0.0417
    150  CE2      192.1210  121.0860   37.2230 C.ar  278  TYR278      0.0417
    151  CZ       193.2140  121.9390   37.1880 C.ar  278  TYR278      0.1957
    152  OH       193.5990  122.5520   36.0230 O.3   278  TYR278     -0.2866
    153  N        187.2030  118.1670   40.0640 N.3   281  TRP281     -0.1241
    154  CA       187.6090  117.3700   38.9080 C.3   281  TRP281      0.1605
    155  C        188.4440  116.1590   39.2600 C.2   281  TRP281      0.2264
    156  O        188.2310  115.0810   38.7120 O.2   281  TRP281     -0.2867
    157  CB       188.3550  118.2230   37.9070 C.3   281  TRP281      0.0550
    158  CG       187.6130  119.4430   37.4990 C.ar  281  TRP281      0.0003
    159  CD1      188.0380  120.7310   37.6240 C.ar  281  TRP281      0.0946
    160  CD2      186.3330  119.5010   36.8570 C.ar  281  TRP281      0.0152
    161  NE1      187.1010  121.5890   37.0930 N.ar  281  TRP281     -0.2442
    162  CE2      186.0470  120.8600   36.6140 C.ar  281  TRP281      0.0810
    163  CE3      185.4060  118.5380   36.4550 C.ar  281  TRP281      0.0012
    164  CZ2      184.8770  121.2830   35.9840 C.ar  281  TRP281      0.0191
    165  CZ3      184.2330  118.9580   35.8260 C.ar  281  TRP281      0.0001
    166  CH2      183.9820  120.3190   35.5970 C.ar  281  TRP281      0.0015
    167  N        183.1390  130.3040   39.1490 N.3   339  TYR339     -0.1241
    168  CA       183.6350  128.9990   38.7240 C.3   339  TYR339      0.1605
    169  C        184.2130  128.2780   39.9370 C.2   339  TYR339      0.2264
    170  O        183.8680  127.1260   40.2200 O.2   339  TYR339     -0.2867
    171  CB       184.7330  129.1860   37.6660 C.3   339  TYR339      0.0534
    172  CG       185.5540  127.9460   37.3940 C.ar  339  TYR339     -0.0201
    173  CD1      185.0180  126.8710   36.6790 C.ar  339  TYR339     -0.0009
    174  CD2      186.8650  127.8440   37.8470 C.ar  339  TYR339     -0.0009
    175  CE1      185.7720  125.7310   36.4230 C.ar  339  TYR339      0.0417
    176  CE2      187.6230  126.7050   37.5990 C.ar  339  TYR339      0.0417
    177  CZ       187.0700  125.6550   36.8890 C.ar  339  TYR339      0.1957
    178  OH       187.8060  124.5150   36.6610 O.3   339  TYR339     -0.2866
@<TRIPOS>BOND
     1    32    33    1
     2    34    33    1
     3    34    35    2
     4    33    36    1
     5    36    37    1
     6    37    38    1
     7    38    39    1
     8    49    48    1
     9    15    16    1
    10    48    47    2
    11    48    50    1
    12    42    43    2
    13    42    41    1
    14    40    41    1
    15    47    46    1
    16    94    93    1
    17    67    64    1
    18    67    68    1
    19    65    66    2
    20    65    64    1
    21    16    19    1
    22    16    17    1
    23    51    52    1
    24    41    44    1
    25    44    45    1
    26    93    92   ar
    27    93    91   ar
    28    17    18    2
    29    92    90   ar
    30    64    63    1
    31    63    53   am
    32    46    45    1
    33    20    21    1
    34    91    89   ar
    35    90    88   ar
    36    53    52    1
    37    53    54    2
    38    52    55    1
    39    89    88   ar
    40    88    87    1
    41    21    24    1
    42    21    22    1
    43    24    25    1
    44    55    56    1
    45    87    84    1
    46     9     7   ar
    47     9    10   ar
    48     7     6   ar
    49    22    23    2
    50    99   100    1
    51    99    96    1
    52    98    97    2
    53    25    26   ar
    54    25    27   ar
    55    56    58   ar
    56    56    57   ar
    57    84    85    1
    58    84    83    1
    59    10    12   ar
    60    10     8   ar
    61    86    85    2
    62    97    96    1
    63    12    14   ar
    64   114   113    1
    65    58    60   ar
    66    26    28   ar
    67     6     8   ar
    68     6     5    1
    69    96    95    1
    70    27    29   ar
    71   115   113    1
    72    57    59   ar
    73   113   112    2
    74     1     2    1
    75    83    81   am
    76    73    74    1
    77    73    70    1
    78     8    11   ar
    79    14    13   ar
    80    69    70    1
    81    60    61   ar
    82     5     2    1
    83    28    30   ar
    84    74    76   ar
    85    74    75   ar
    86   112   111    1
    87    82    81    2
    88    81    80    1
    89    76    78   ar
    90     2     3    1
    91    59    61   ar
    92    70    71    1
    93   111   110    1
    94    29    30   ar
    95    11    13   ar
    96    61    62    1
    97    75    77   ar
    98    72    71    2
    99    30    31    1
   100    78    77   ar
   101    80    79    1
   102     3     4    2
   103   124   123    1
   104   110   109    1
   105   109   106    1
   106   122   123    1
   107   122   121    1
   108   166   165   ar
   109   166   164   ar
   110   165   163   ar
   111   121   120    1
   112   164   162   ar
   113   152   151    1
   114   106   105    1
   115   106   107    1
   116   104   103    2
   117   175   173   ar
   118   175   177   ar
   119   163   160   ar
   120   162   160   ar
   121   162   161   ar
   122   178   177    1
   123   173   172   ar
   124   160   158   ar
   125   177   176   ar
   126   103   105   am
   127   103   102    1
   128   107   108    2
   129   161   159   ar
   130   151   150   ar
   131   151   149   ar
   132   150   148   ar
   133   120   117    1
   134   172   171    1
   135   172   174   ar
   136   158   159   ar
   137   158   157    1
   138   176   174   ar
   139   171   168    1
   140   102   101    1
   141   157   154    1
   142   149   147   ar
   143   117   116    1
   144   117   118    1
   145   148   146   ar
   146   156   155    2
   147   168   167    1
   148   168   169    1
   149   154   155    1
   150   154   153    1
   151   140   138   ar
   152   147   146   ar
   153   146   145    1
   154   118   125   am
   155   118   119    2
   156   125   126    1
   157   169   170    2
   158   138   137    1
   159   138   139   ar
   160   131   130    1
   161   130   129    1
   162   130   132    1
   163   128   127    2
   164   145   142    1
   165   137   134    1
   166   142   141    1
   167   142   143    1
   168   126   129    1
   169   126   127    1
   170   143   144    2
   171   134   133    1
   172   134   135    1
   173   136   135    2
