@<TRIPOS>MOLECULE
tmp/1o1sB00.pdb
 210 204 0 0 0
SMALL
GASTEIGER

@<TRIPOS>ATOM
      1  N        179.6310  132.6900   27.8980 N.3    77  SER77      -0.1217
      2  CA       179.4950  131.5590   28.8250 C.3    77  SER77       0.1889
      3  C        178.4210  131.7800   29.8780 C.2    77  SER77       0.2288
      4  O        178.5380  131.2680   31.0020 O.2    77  SER77      -0.2866
      5  CB       180.8120  131.3230   29.5610 C.3    77  SER77       0.2089
      6  OG       181.8680  131.1990   28.6360 O.3    77  SER77      -0.2183
      7  N        176.8260  129.0400   31.8210 N.3    80  TRP80      -0.1241
      8  CA       177.7750  128.5240   32.8030 C.3    80  TRP80       0.1605
      9  C        177.6190  129.2590   34.1000 C.2    80  TRP80       0.2264
     10  O        177.7170  128.6680   35.1700 O.2    80  TRP80      -0.2867
     11  CB       179.2070  128.7140   32.3420 C.3    80  TRP80       0.0550
     12  CG       179.7260  127.6270   31.4910 C.ar   80  TRP80       0.0003
     13  CD1      180.1120  127.7290   30.1830 C.ar   80  TRP80       0.0946
     14  CD2      179.9670  126.2630   31.8790 C.ar   80  TRP80       0.0152
     15  NE1      180.5840  126.5190   29.7390 N.ar   80  TRP80      -0.2442
     16  CE2      180.5040  125.6010   30.7570 C.ar   80  TRP80       0.0810
     17  CE3      179.7900  125.5420   33.0670 C.ar   80  TRP80       0.0012
     18  CZ2      180.8660  124.2410   30.7880 C.ar   80  TRP80       0.0191
     19  CZ3      180.1560  124.1860   33.0960 C.ar   80  TRP80       0.0001
     20  CH2      180.6860  123.5570   31.9640 C.ar   80  TRP80       0.0015
     21  N        176.8000  125.4760   21.2590 N.3   127  HIS127     -0.1241
     22  CA       178.1110  124.9300   21.4980 C.3   127  HIS127      0.1621
     23  C        177.8300  123.9390   22.6130 C.2   127  HIS127      0.2264
     24  O        176.9120  124.1420   23.4090 O.2   127  HIS127     -0.2867
     25  CB       178.9890  126.0980   21.9410 C.3   127  HIS127      0.0745
     26  CG       180.4080  125.7430   22.2350 C.ar  127  HIS127      0.0817
     27  ND1      180.7650  124.9170   23.2760 N.ar  127  HIS127     -0.2268
     28  CD2      181.5650  126.1990   21.7010 C.ar  127  HIS127      0.1154
     29  CE1      182.0800  124.8830   23.3760 C.ar  127  HIS127      0.1986
     30  NE2      182.5880  125.6530   22.4310 N.ar  127  HIS127     -0.2212
     31  N        179.5130  123.1350   25.4120 N.3   129  ALA129     -0.1231
     32  CA       179.7740  123.5250   26.7920 C.3   129  ALA129      0.1679
     33  C        178.5790  124.2320   27.3900 C.2   129  ALA129      0.2434
     34  O        178.0670  123.7970   28.4140 O.2   129  ALA129     -0.2733
     35  CB       181.0030  124.3540   26.8890 C.3   129  ALA129      0.0304
     36  N        178.1160  125.3410   26.7750 N.am  130  PRO130     -0.2729
     37  CA       176.9450  125.9910   27.3730 C.3   130  PRO130      0.1401
     38  C        175.6990  125.0950   27.3260 C.2   130  PRO130      0.2269
     39  O        174.7920  125.2630   28.1450 O.2   130  PRO130     -0.2865
     40  CB       176.7870  127.2790   26.5490 C.3   130  PRO130      0.0296
     41  CG       177.5110  127.0140   25.2820 C.3   130  PRO130      0.0237
     42  CD       178.7020  126.1970   25.7260 C.3   130  PRO130      0.0939
     43  N        175.7080  121.8620   27.9350 N.3   132  TYR132     -0.1241
     44  CA       175.8450  121.0350   29.1290 C.3   132  TYR132      0.1605
     45  C        175.4240  121.8410   30.3600 C.2   132  TYR132      0.2264
     46  O        174.6840  121.3660   31.2110 O.2   132  TYR132     -0.2867
     47  CB       177.2970  120.5630   29.2610 C.3   132  TYR132      0.0534
     48  CG       177.6980  120.1120   30.6550 C.ar  132  TYR132     -0.0201
     49  CD1      177.5120  118.8020   31.0650 C.ar  132  TYR132     -0.0009
     50  CD2      178.2510  121.0040   31.5720 C.ar  132  TYR132     -0.0009
     51  CE1      177.8630  118.3880   32.3560 C.ar  132  TYR132      0.0417
     52  CE2      178.6070  120.5910   32.8720 C.ar  132  TYR132      0.0417
     53  CZ       178.4110  119.2870   33.2490 C.ar  132  TYR132      0.1957
     54  OH       178.7840  118.8590   34.5060 O.3   132  TYR132     -0.2866
     55  N        183.0760  120.2200   19.6370 N.3   171  MET171     -0.1245
     56  CA       182.4690  121.0210   20.7060 C.3   171  MET171      0.1570
     57  C        181.3180  121.8400   20.1250 C.2   171  MET171      0.2261
     58  O        180.3580  122.1800   20.8060 O.2   171  MET171     -0.2867
     59  CB       183.4960  121.9460   21.3440 C.3   171  MET171      0.0387
     60  CG       184.3860  121.2670   22.3770 C.3   171  MET171      0.0595
     61  SD       183.4540  120.5830   23.7620 S.3   171  MET171     -0.1393
     62  CE       183.0780  122.0450   24.7100 C.3   171  MET171      0.0692
     63  N        186.5520  122.5370   17.5420 N.3   176  GLU176     -0.1245
     64  CA       187.5110  121.5300   17.9910 C.3   176  GLU176      0.1567
     65  C        186.9530  120.2800   18.6990 C.2   176  GLU176      0.2260
     66  O        185.8030  120.2350   19.1300 O.2   176  GLU176     -0.2867
     67  CB       188.5970  122.2100   18.8660 C.3   176  GLU176      0.0388
     68  CG       188.1530  122.7100   20.2780 C.3   176  GLU176      0.1160
     69  CD       187.3570  124.0370   20.2950 C.2   176  GLU176      0.3649
     70  OE1      187.3750  124.8080   19.3000 O.co2 176  GLU176     -0.2457
     71  OE2      186.7200  124.3060   21.3430 O.co2 176  GLU176     -0.2457
     72  N        186.1340  116.6720   26.5750 N.3   180  ARG180     -0.1245
     73  CA       185.0400  117.4190   27.1810 C.3   180  ARG180      0.1563
     74  C        183.7410  117.2860   26.3690 C.2   180  ARG180      0.2260
     75  O        182.6610  117.1840   26.9440 O.2   180  ARG180     -0.2867
     76  CB       185.3780  118.9160   27.3080 C.3   180  ARG180      0.0307
     77  CG       186.5670  119.2960   28.1780 C.3   180  ARG180      0.0489
     78  CD       186.8910  120.8160   28.0370 C.3   180  ARG180      0.2205
     79  NE       187.3200  121.1920   26.6780 N.pl3 180  ARG180     -0.0865
     80  CZ       186.9020  122.2680   25.9990 C.cat 180  ARG180      0.5346
     81  NH1      187.3400  122.5110   24.7680 N.pl3 180  ARG180      0.1354
     82  NH2      186.0720  123.1370   26.5460 N.pl3 180  ARG180      0.1354
     83  N        181.7970  114.1280   27.1070 N.3   183  TYR183     -0.1227
     84  CA       181.1420  114.2170   28.4130 C.3   183  TYR183      0.1736
     85  C        179.9230  115.1450   28.3700 C.2   183  TYR183      0.2595
     86  O        178.8990  114.8450   28.9770 O.2   183  TYR183     -0.2718
     87  CB       182.1270  114.6790   29.4980 C.3   183  TYR183      0.0548
     88  CG       181.4560  115.1130   30.7880 C.ar  183  TYR183     -0.0200
     89  CD1      180.8470  114.1770   31.6310 C.ar  183  TYR183     -0.0009
     90  CD2      181.4460  116.4560   31.1740 C.ar  183  TYR183     -0.0009
     91  CE1      180.2450  114.5670   32.8380 C.ar  183  TYR183      0.0417
     92  CE2      180.8460  116.8590   32.3800 C.ar  183  TYR183      0.0417
     93  CZ       180.2490  115.9070   33.2070 C.ar  183  TYR183      0.1957
     94  OH       179.6690  116.2920   34.3940 O.3   183  TYR183     -0.2866
     95  N        180.0310  116.2720   27.6680 N.am  184  CYS184     -0.1970
     96  CA       178.9040  117.2020   27.5570 C.3   184  CYS184      0.1712
     97  C        177.7510  116.5000   26.8670 C.2   184  CYS184      0.2296
     98  O        176.6000  116.6830   27.2430 O.2   184  CYS184     -0.2864
     99  CB       179.2860  118.4420   26.7430 C.3   184  CYS184      0.0983
    100  SG       180.4480  119.5510   27.5670 S.3   184  CYS184     -0.0798
    101  N        195.4610  115.2430   32.2760 N.3   226  HIS226     -0.1241
    102  CA       194.9540  116.3850   33.0160 C.3   226  HIS226      0.1621
    103  C        193.7110  116.0540   33.8340 C.2   226  HIS226      0.2264
    104  O        192.8750  115.2680   33.4050 O.2   226  HIS226     -0.2867
    105  CB       194.6730  117.5690   32.0630 C.3   226  HIS226      0.0745
    106  CG       194.5610  118.8910   32.7630 C.ar  226  HIS226      0.0817
    107  ND1      193.4000  119.3050   33.3850 N.ar  226  HIS226     -0.2268
    108  CD2      195.4840  119.8560   33.0080 C.ar  226  HIS226      0.1154
    109  CE1      193.6150  120.4590   33.9930 C.ar  226  HIS226      0.1986
    110  NE2      194.8710  120.8160   33.7800 N.ar  226  HIS226     -0.2212
    111  N        191.0600  117.9530   34.5890 N.3   228  GLY228     -0.1210
    112  CA       189.7750  118.3140   33.9970 C.3   228  GLY228      0.1956
    113  C        189.3070  117.3180   32.9380 C.2   228  GLY228      0.2611
    114  O        188.1380  116.9220   32.9170 O.2   228  GLY228     -0.2717
    115  N        190.2250  116.9200   32.0550 N.am  229  TYR229     -0.1976
    116  CA       189.9340  115.9670   30.9940 C.3   229  TYR229      0.1639
    117  C        189.7290  114.5720   31.5210 C.2   229  TYR229      0.2290
    118  O        188.9560  113.8260   30.9280 O.2   229  TYR229     -0.2864
    119  CB       191.0510  115.9220   29.9660 C.3   229  TYR229      0.0560
    120  CG       191.1710  117.1800   29.1800 C.ar  229  TYR229     -0.0198
    121  CD1      192.3410  117.9280   29.2050 C.ar  229  TYR229     -0.0009
    122  CD2      190.1040  117.6380   28.4160 C.ar  229  TYR229     -0.0009
    123  CE1      192.4440  119.1090   28.4920 C.ar  229  TYR229      0.0417
    124  CE2      190.1900  118.8120   27.6960 C.ar  229  TYR229      0.0417
    125  CZ       191.3620  119.5480   27.7420 C.ar  229  TYR229      0.1957
    126  OH       191.4230  120.7510   27.0710 O.3   229  TYR229     -0.2866
    127  N        186.1400  114.2300   32.8200 N.3   232  CYS232     -0.1235
    128  CA       185.2420  114.1430   31.6570 C.3   232  CYS232      0.1677
    129  C        185.2760  112.7780   31.0030 C.2   232  CYS232      0.2270
    130  O        184.2280  112.2240   30.7140 O.2   232  CYS232     -0.2867
    131  CB       185.5450  115.2260   30.6140 C.3   232  CYS232      0.0956
    132  SG       185.1500  116.9100   31.1450 S.3   232  CYS232     -0.0801
    133  N        196.4300  119.8820   38.9510 N.3   268  GLY268     -0.1210
    134  CA       195.8110  119.4580   37.7100 C.3   268  GLY268      0.1956
    135  C        196.5320  118.4000   36.9220 C.2   268  GLY268      0.2611
    136  O        195.9020  117.5580   36.3030 O.2   268  GLY268     -0.2717
    137  N        197.8520  118.4920   36.8980 N.am  269  ARG269     -0.1979
    138  CA       198.6980  117.5560   36.1810 C.3   269  ARG269      0.1597
    139  C        199.9970  117.4750   36.9670 C.2   269  ARG269      0.2287
    140  O        200.3130  118.3800   37.7150 O.2   269  ARG269     -0.2864
    141  CB       198.9390  118.0430   34.7490 C.3   269  ARG269      0.0334
    142  CG       198.7870  119.5450   34.5320 C.3   269  ARG269      0.0492
    143  CD       199.0710  119.9010   33.0820 C.3   269  ARG269      0.2205
    144  NE       198.7690  121.3000   32.7880 N.pl3 269  ARG269     -0.0865
    145  CZ       199.3760  122.0280   31.8510 C.cat 269  ARG269      0.5346
    146  NH1      200.3300  121.4810   31.1000 N.pl3 269  ARG269      0.1354
    147  NH2      199.0690  123.3150   31.6950 N.pl3 269  ARG269      0.1354
    148  N        202.6980  120.4960   38.5700 N.3   272  LYS272     -0.1231
    149  CA       202.0770  121.7990   38.4390 C.3   272  LYS272      0.1693
    150  C        201.5280  122.1760   39.8130 C.2   272  LYS272      0.2591
    151  O        201.7490  121.4540   40.7910 O.2   272  LYS272     -0.2718
    152  CB       201.0430  121.8410   37.3130 C.3   272  LYS272      0.0285
    153  CG       201.7440  121.8080   35.9500 C.3   272  LYS272      0.0035
    154  CD       201.1190  122.7160   34.9230 C.3   272  LYS272      0.0206
    155  CE       201.4520  124.1550   35.1620 C.3   272  LYS272      0.1093
    156  NZ       200.6440  125.0790   34.3100 N.3   272  LYS272     -0.1314
    157  N        200.8510  123.3120   39.9070 N.am  273  LEU273     -0.1980
    158  CA       200.3680  123.7880   41.2010 C.3   273  LEU273      0.1596
    159  C        199.0040  123.3430   41.6280 C.2   273  LEU273      0.2287
    160  O        198.1420  123.0720   40.8160 O.2   273  LEU273     -0.2864
    161  CB       200.4280  125.3150   41.2620 C.3   273  LEU273      0.0297
    162  CG       201.7440  125.8800   40.7340 C.3   273  LEU273      0.0022
    163  CD1      201.6690  127.3650   40.7630 C.3   273  LEU273      0.0001
    164  CD2      202.9500  125.3540   41.4990 C.3   273  LEU273      0.0001
    165  N        195.2760  123.6900   43.0680 N.3   275  ASP275     -0.1239
    166  CA       194.2360  124.6420   42.6700 C.3   275  ASP275      0.1674
    167  C        192.9350  124.0670   43.2060 C.2   275  ASP275      0.2266
    168  O        192.6130  122.9040   42.9880 O.2   275  ASP275     -0.2867
    169  CB       194.2010  124.7670   41.1400 C.3   275  ASP275      0.1410
    170  CG       193.0560  125.6350   40.6220 C.2   275  ASP275      0.3668
    171  OD1      192.1100  125.9540   41.3630 O.co2 275  ASP275     -0.2456
    172  OD2      193.0960  126.0020   39.4310 O.co2 275  ASP275     -0.2456
    173  N        190.2410  121.8420   41.4290 N.3   278  TYR278     -0.1241
    174  CA       190.5730  120.4310   41.2840 C.3   278  TYR278      0.1605
    175  C        190.0910  119.5950   42.4710 C.2   278  TYR278      0.2264
    176  O        190.2390  118.3650   42.5000 O.2   278  TYR278     -0.2867
    177  CB       192.0730  120.2320   41.0490 C.3   278  TYR278      0.0534
    178  CG       192.5580  120.7990   39.7190 C.ar  278  TYR278     -0.0201
    179  CD1      193.6530  121.6680   39.6700 C.ar  278  TYR278     -0.0009
    180  CD2      191.8790  120.5280   38.5130 C.ar  278  TYR278     -0.0009
    181  CE1      194.0540  122.2680   38.4770 C.ar  278  TYR278      0.0417
    182  CE2      192.2790  121.1290   37.3020 C.ar  278  TYR278      0.0417
    183  CZ       193.3660  121.9990   37.3050 C.ar  278  TYR278      0.1957
    184  OH       193.7680  122.6430   36.1650 O.3   278  TYR278     -0.2866
    185  N        187.2850  118.1110   40.0330 N.3   281  TRP281     -0.1241
    186  CA       187.7070  117.3310   38.8730 C.3   281  TRP281      0.1605
    187  C        188.5810  116.1500   39.2320 C.2   281  TRP281      0.2264
    188  O        188.4560  115.0930   38.6300 O.2   281  TRP281     -0.2867
    189  CB       188.4270  118.2000   37.8620 C.3   281  TRP281      0.0550
    190  CG       187.6800  119.4190   37.4650 C.ar  281  TRP281      0.0003
    191  CD1      188.1130  120.7050   37.5960 C.ar  281  TRP281      0.0946
    192  CD2      186.4050  119.4920   36.8070 C.ar  281  TRP281      0.0152
    193  NE1      187.1970  121.5710   37.0490 N.ar  281  TRP281     -0.2442
    194  CE2      186.1400  120.8570   36.5580 C.ar  281  TRP281      0.0810
    195  CE3      185.4720  118.5420   36.3950 C.ar  281  TRP281      0.0012
    196  CZ2      184.9840  121.2990   35.9120 C.ar  281  TRP281      0.0191
    197  CZ3      184.3110  118.9840   35.7470 C.ar  281  TRP281      0.0001
    198  CH2      184.0830  120.3530   35.5150 C.ar  281  TRP281      0.0015
    199  N        183.2540  130.2800   39.1230 N.3   339  TYR339     -0.1241
    200  CA       183.7300  128.9660   38.7040 C.3   339  TYR339      0.1605
    201  C        184.3560  128.2430   39.8970 C.2   339  TYR339      0.2264
    202  O        184.0210  127.0960   40.2060 O.2   339  TYR339     -0.2867
    203  CB       184.7750  129.1340   37.5940 C.3   339  TYR339      0.0534
    204  CG       185.6230  127.9110   37.3320 C.ar  339  TYR339     -0.0201
    205  CD1      185.0910  126.7880   36.6850 C.ar  339  TYR339     -0.0009
    206  CD2      186.9540  127.8690   37.7280 C.ar  339  TYR339     -0.0009
    207  CE1      185.8750  125.6590   36.4410 C.ar  339  TYR339      0.0417
    208  CE2      187.7410  126.7350   37.4980 C.ar  339  TYR339      0.0417
    209  CZ       187.1980  125.6380   36.8620 C.ar  339  TYR339      0.1957
    210  OH       187.9460  124.4910   36.7250 O.3   339  TYR339     -0.2866
@<TRIPOS>BOND
     1    63    64    1
     2    64    65    1
     3    64    67    1
     4    65    66    2
     5    67    68    1
     6    70    69   ar
     7    55    56    1
     8    57    56    1
     9    57    58    2
    10    68    69    1
    11    69    71   ar
    12    56    59    1
    13    21    22    1
    14    59    60    1
    15    22    25    1
    16    22    23    1
    17    28    26   ar
    18    28    30   ar
    19    25    26    1
    20    26    27   ar
    21    60    61    1
    22    30    29   ar
    23    23    24    2
    24    27    29   ar
    25    61    62    1
    26    81    80    1
    27    41    42    1
    28    41    40    1
    29    31    32    1
    30    42    36    1
    31    80    82    1
    32    80    79    2
    33    74    75    2
    34    74    73    1
    35    40    37    1
    36    72    73    1
    37    79    78    1
    38    99    96    1
    39    99   100    1
    40    36    37    1
    41    36    33   am
    42    32    35    1
    43    32    33    1
    44    97    98    2
    45    97    96    1
    46   126   125    1
    47    83    84    1
    48    73    76    1
    49    76    77    1
    50    38    37    1
    51    38    39    2
    52    33    34    2
    53    96    95    1
    54    95    85   am
    55   124   125   ar
    56   124   122   ar
    57   125   123   ar
    58     1     2    1
    59    43    44    1
    60    78    77    1
    61    85    84    1
    62    85    86    2
    63    84    87    1
    64   122   120   ar
    65   123   121   ar
    66     6     5    1
    67     2     5    1
    68     2     3    1
    69    44    47    1
    70    44    45    1
    71   120   121   ar
    72   120   119    1
    73    47    48    1
    74    87    88    1
    75    15    13   ar
    76    15    16   ar
    77     3     4    2
    78   119   116    1
    79    13    12   ar
    80    45    46    2
    81   131   132    1
    82   131   128    1
    83    48    49   ar
    84    48    50   ar
    85   130   129    2
    86    16    18   ar
    87    16    14   ar
    88    88    90   ar
    89    88    89   ar
    90    18    20   ar
    91   118   117    2
    92   116   117    1
    93   116   115    1
    94   129   128    1
    95    49    51   ar
    96   146   145    1
    97    90    92   ar
    98    12    14   ar
    99    12    11    1
   100    50    52   ar
   101    89    91   ar
   102   128   127    1
   103   147   145    1
   104     7     8    1
   105   145   144    2
   106    14    17   ar
   107    20    19   ar
   108   115   113   am
   109   105   106    1
   110   105   102    1
   111   101   102    1
   112    11     8    1
   113    51    53   ar
   114    92    93   ar
   115   106   108   ar
   116   106   107   ar
   117   144   143    1
   118     8     9    1
   119    91    93   ar
   120    52    53   ar
   121   114   113    2
   122   113   112    1
   123   108   110   ar
   124   102   103    1
   125    17    19   ar
   126   143   142    1
   127    93    94    1
   128    53    54    1
   129   107   109   ar
   130   104   103    2
   131   110   109   ar
   132   112   111    1
   133     9    10    2
   134   156   155    1
   135   142   141    1
   136   141   138    1
   137   154   155    1
   138   154   153    1
   139   198   197   ar
   140   198   196   ar
   141   197   195   ar
   142   196   194   ar
   143   153   152    1
   144   184   183    1
   145   138   137    1
   146   138   139    1
   147   136   135    2
   148   195   192   ar
   149   207   205   ar
   150   207   209   ar
   151   194   192   ar
   152   194   193   ar
   153   205   204   ar
   154   210   209    1
   155   192   190   ar
   156   209   208   ar
   157   137   135   am
   158   135   134    1
   159   139   140    2
   160   193   191   ar
   161   182   183   ar
   162   182   180   ar
   163   183   181   ar
   164   152   149    1
   165   204   203    1
   166   204   206   ar
   167   190   191   ar
   168   190   189    1
   169   208   206   ar
   170   203   200    1
   171   134   133    1
   172   189   186    1
   173   149   148    1
   174   149   150    1
   175   181   179   ar
   176   180   178   ar
   177   188   187    2
   178   200   199    1
   179   200   201    1
   180   186   187    1
   181   186   185    1
   182   172   170   ar
   183   179   178   ar
   184   178   177    1
   185   150   157   am
   186   150   151    2
   187   201   202    2
   188   157   158    1
   189   170   169    1
   190   170   171   ar
   191   162   163    1
   192   162   161    1
   193   162   164    1
   194   160   159    2
   195   177   174    1
   196   169   166    1
   197   158   161    1
   198   158   159    1
   199   174   173    1
   200   174   175    1
   201   175   176    2
   202   166   165    1
   203   166   167    1
   204   168   167    2
