@<TRIPOS>MOLECULE
tmp/1o1sA00.pdb
 94 92 0 0 0
SMALL
GASTEIGER

@<TRIPOS>ATOM
      1  N        186.8510  134.7600   23.6420 N.3    76  ALA76      -0.1245
      2  CA       186.1700  133.4850   23.8170 C.3    76  ALA76       0.1562
      3  C        184.8310  133.4080   23.0890 C.2    76  ALA76       0.2260
      4  O        184.1490  132.3820   23.1410 O.2    76  ALA76      -0.2867
      5  CB       185.9860  133.1800   25.3010 C.3    76  ALA76       0.0290
      6  N        182.9660  132.4670   20.4420 N.3    78  TYR78      -0.1241
      7  CA       183.1200  131.5870   19.3030 C.3    78  TYR78       0.1605
      8  C        182.2430  131.9590   18.1030 C.2    78  TYR78       0.2264
      9  O        182.5830  131.6250   16.9660 O.2    78  TYR78      -0.2867
     10  CB       182.9210  130.1180   19.7250 C.3    78  TYR78       0.0534
     11  CG       181.5990  129.8650   20.4050 C.ar   78  TYR78      -0.0201
     12  CD1      180.4700  129.5180   19.6560 C.ar   78  TYR78      -0.0009
     13  CD2      181.4450  130.0720   21.7890 C.ar   78  TYR78      -0.0009
     14  CE1      179.2210  129.4100   20.2540 C.ar   78  TYR78       0.0417
     15  CE2      180.1930  129.9470   22.3980 C.ar   78  TYR78       0.0417
     16  CZ       179.0870  129.6260   21.6150 C.ar   78  TYR78       0.1957
     17  OH       177.8320  129.5570   22.1710 O.3    78  TYR78      -0.2866
     18  N        196.3050  131.3330   26.4300 N.3   111  LYS111     -0.1245
     19  CA       195.5200  130.3330   27.1280 C.3   111  LYS111      0.1561
     20  C        194.0810  130.2650   26.6720 C.2   111  LYS111      0.2260
     21  O        193.2560  129.5770   27.2670 O.2   111  LYS111     -0.2867
     22  CB       195.6270  130.5430   28.6360 C.3   111  LYS111      0.0271
     23  CG       196.9850  130.1290   29.1930 C.3   111  LYS111      0.0035
     24  CD       196.9380  129.8570   30.6730 C.3   111  LYS111      0.0206
     25  CE       198.2380  129.2460   31.0970 C.3   111  LYS111      0.1093
     26  NZ       198.1950  128.8650   32.5200 N.3   111  LYS111     -0.1314
     27  N        191.2670  129.0890   23.9260 N.3   113  TYR113     -0.1227
     28  CA       191.0420  127.9760   22.9900 C.3   113  TYR113      0.1736
     29  C        190.8070  128.4610   21.5600 C.2   113  TYR113      0.2595
     30  O        191.3830  127.9190   20.6130 O.2   113  TYR113     -0.2718
     31  CB       189.8100  127.1240   23.3700 C.3   113  TYR113      0.0548
     32  CG       189.9640  126.0740   24.4740 C.ar  113  TYR113     -0.0200
     33  CD1      189.7500  126.4090   25.8260 C.ar  113  TYR113     -0.0009
     34  CD2      190.2200  124.7190   24.1650 C.ar  113  TYR113     -0.0009
     35  CE1      189.7750  125.4350   26.8370 C.ar  113  TYR113      0.0417
     36  CE2      190.2490  123.7330   25.1800 C.ar  113  TYR113      0.0417
     37  CZ       190.0190  124.1070   26.5130 C.ar  113  TYR113      0.1957
     38  OH       189.9880  123.1670   27.5220 O.3   113  TYR113     -0.2866
     39  N        189.9020  129.4300   21.4080 N.am  114  GLN114     -0.1979
     40  CA       189.5540  129.9830   20.1010 C.3   114  GLN114      0.1601
     41  C        190.7170  130.4610   19.2690 C.2   114  GLN114      0.2287
     42  O        190.7760  130.1700   18.0830 O.2   114  GLN114     -0.2864
     43  CB       188.5540  131.1270   20.2290 C.3   114  GLN114      0.0394
     44  CG       187.1450  130.7100   20.0100 C.3   114  GLN114      0.0908
     45  CD       186.6280  130.0250   21.2050 C.2   114  GLN114      0.2608
     46  OE1      187.1560  130.2060   22.3130 O.2   114  GLN114     -0.2717
     47  NE2      185.5960  129.2140   21.0220 N.am  114  GLN114     -0.0878
     48  N        205.8200  130.1260   28.5250 N.3   143  ASP143     -0.1239
     49  CA       205.1200  129.2120   29.4380 C.3   143  ASP143      0.1674
     50  C        205.3470  127.8260   28.8650 C.2   143  ASP143      0.2266
     51  O        204.5840  127.3630   28.0210 O.2   143  ASP143     -0.2867
     52  CB       203.6280  129.5060   29.4760 C.3   143  ASP143      0.1410
     53  CG       202.8650  128.5560   30.3760 C.2   143  ASP143      0.3668
     54  OD1      203.4860  127.6260   30.9430 O.co2 143  ASP143     -0.2456
     55  OD2      201.6330  128.7510   30.5290 O.co2 143  ASP143     -0.2456
     56  N        204.5870  125.0650   29.6920 N.3   145  LYS145     -0.1231
     57  CA       203.6100  124.0390   29.9580 C.3   145  LYS145      0.1693
     58  C        202.2460  124.3750   29.4030 C.2   145  LYS145      0.2592
     59  O        201.2660  123.7060   29.7310 O.2   145  LYS145     -0.2718
     60  CB       203.5330  123.7730   31.4700 C.3   145  LYS145      0.0285
     61  CG       204.8330  123.2420   32.0840 C.3   145  LYS145      0.0035
     62  CD       204.7330  123.1100   33.6100 C.3   145  LYS145      0.0206
     63  CE       206.0500  122.6360   34.2360 C.3   145  LYS145      0.1093
     64  NZ       205.8830  122.2960   35.6690 N.3   145  LYS145     -0.1314
     65  N        202.1750  125.3840   28.5420 N.am  146  ASN146     -0.1960
     66  CA       200.8880  125.7800   27.9590 C.3   146  ASN146      0.1819
     67  C        200.2770  124.5600   27.2400 C.2   146  ASN146      0.2621
     68  O        200.8290  124.0580   26.2550 O.2   146  ASN146     -0.2715
     69  CB       201.0930  126.9700   27.0070 C.3   146  ASN146      0.1195
     70  CG       199.8010  127.4870   26.4280 C.2   146  ASN146      0.2630
     71  OD1      199.0920  126.7740   25.7180 O.2   146  ASN146     -0.2716
     72  ND2      199.5040  128.7420   26.6940 N.am  146  ASN146     -0.0877
     73  N        199.1660  124.0650   27.7750 N.am  147  TYR147     -0.1960
     74  CA       198.5050  122.8860   27.2450 C.3   147  TYR147      0.1771
     75  C        198.1170  123.0020   25.7670 C.2   147  TYR147      0.2619
     76  O        198.3440  122.0780   24.9920 O.2   147  TYR147     -0.2715
     77  CB       197.2980  122.5670   28.1140 C.3   147  TYR147      0.0574
     78  CG       196.8990  121.1050   28.0880 C.ar  147  TYR147     -0.0198
     79  CD1      197.4820  120.1730   28.9620 C.ar  147  TYR147     -0.0009
     80  CD2      195.9260  120.6470   27.1960 C.ar  147  TYR147     -0.0009
     81  CE1      197.0890  118.8090   28.9360 C.ar  147  TYR147      0.0417
     82  CE2      195.5350  119.3000   27.1680 C.ar  147  TYR147      0.0417
     83  CZ       196.1110  118.3940   28.0310 C.ar  147  TYR147      0.1957
     84  OH       195.6680  117.0860   27.9840 O.3   147  TYR147     -0.2866
     85  N        197.5490  124.1440   25.3820 N.am  148  HIS148     -0.1973
     86  CA       197.1510  124.4230   24.0000 C.3   148  HIS148      0.1656
     87  C        198.3550  124.4150   23.0700 C.2   148  HIS148      0.2291
     88  O        198.2780  123.9140   21.9540 O.2   148  HIS148     -0.2864
     89  CB       196.5240  125.8110   23.8870 C.3   148  HIS148      0.0771
     90  CG       195.2840  125.9850   24.6970 C.ar  148  HIS148      0.0820
     91  ND1      194.2060  125.1360   24.5980 N.ar  148  HIS148     -0.2267
     92  CD2      194.9430  126.9210   25.6120 C.ar  148  HIS148      0.1154
     93  CE1      193.2520  125.5420   25.4160 C.ar  148  HIS148      0.1986
     94  NE2      193.6740  126.6220   26.0420 N.ar  148  HIS148     -0.2212
@<TRIPOS>BOND
     1     9     8    2
     2    42    41    2
     3     8     7    1
     4    41    40    1
     5     7    10    1
     6     7     6    1
     7    12    14   ar
     8    12    11   ar
     9    10    11    1
    10    44    43    1
    11    44    45    1
    12    40    43    1
    13    40    39    1
    14    14    16   ar
    15    11    13   ar
    16    30    29    2
    17    47    45   am
    18    45    46    2
    19    39    29   am
    20    29    28    1
    21    16    17    1
    22    16    15   ar
    23    13    15   ar
    24    88    87    2
    25    28    31    1
    26    28    27    1
    27    87    86    1
    28     3     4    2
    29     3     2    1
    30    31    32    1
    31     1     2    1
    32     2     5    1
    33    89    86    1
    34    89    90    1
    35    86    85    1
    36    34    32   ar
    37    34    36   ar
    38    32    33   ar
    39    91    90   ar
    40    91    93   ar
    41    90    92   ar
    42    76    75    2
    43    36    37   ar
    44    85    75   am
    45    93    94   ar
    46    92    94   ar
    47    71    70    2
    48    75    74    1
    49    33    35   ar
    50    68    67    2
    51    70    72   am
    52    70    69    1
    53    18    19    1
    54    37    35   ar
    55    37    38    1
    56    20    19    1
    57    20    21    2
    58    69    66    1
    59    19    22    1
    60    82    80   ar
    61    82    83   ar
    62    80    78   ar
    63    67    73   am
    64    67    66    1
    65    74    73    1
    66    74    77    1
    67    66    65    1
    68    84    83    1
    69    51    50    2
    70    83    81   ar
    71    78    77    1
    72    78    79   ar
    73    48    49    1
    74    65    58   am
    75    22    23    1
    76    50    49    1
    77    81    79   ar
    78    23    24    1
    79    58    59    2
    80    58    57    1
    81    49    52    1
    82    52    53    1
    83    56    57    1
    84    57    60    1
    85    53    55   ar
    86    53    54   ar
    87    24    25    1
    88    25    26    1
    89    60    61    1
    90    61    62    1
    91    62    63    1
    92    63    64    1
