@<TRIPOS>MOLECULE
tmp/1o1tB00.pdb
 237 233 0 0 0
SMALL
GASTEIGER

@<TRIPOS>ATOM
      1  N        179.6830  134.6600   26.7880 N.3    76  ALA76      -0.1231
      2  CA       179.3610  133.4980   25.9640 C.3    76  ALA76       0.1694
      3  C        179.2860  132.2260   26.8160 C.2    76  ALA76       0.2592
      4  O        179.3020  131.1160   26.2880 O.2    76  ALA76      -0.2718
      5  CB       180.3810  133.3370   24.8360 C.3    76  ALA76       0.0304
      6  N        179.1630  132.4100   28.1350 N.am   77  SER77      -0.1952
      7  CA       179.0600  131.3190   29.1180 C.3    77  SER77       0.1924
      8  C        177.9360  131.5830   30.1080 C.2    77  SER77       0.2314
      9  O        178.0400  131.1820   31.2670 O.2    77  SER77      -0.2863
     10  CB       180.3350  131.2130   29.9400 C.3    77  SER77       0.2116
     11  OG       181.3960  130.7680   29.1430 O.3    77  SER77      -0.2180
     12  N        176.3980  128.8020   31.8840 N.3    80  TRP80      -0.1241
     13  CA       177.3540  128.3120   32.8870 C.3    80  TRP80       0.1605
     14  C        177.2100  129.1130   34.1720 C.2    80  TRP80       0.2264
     15  O        177.2500  128.5680   35.2620 O.2    80  TRP80      -0.2867
     16  CB       178.8010  128.4410   32.4140 C.3    80  TRP80       0.0550
     17  CG       179.2900  127.3240   31.5620 C.ar   80  TRP80       0.0003
     18  CD1      179.5910  127.3890   30.2360 C.ar   80  TRP80       0.0946
     19  CD2      179.5740  125.9760   31.9740 C.ar   80  TRP80       0.0152
     20  NE1      180.0480  126.1750   29.7950 N.ar   80  TRP80      -0.2442
     21  CE2      180.0480  125.2860   30.8360 C.ar   80  TRP80       0.0810
     22  CE3      179.4740  125.2870   33.1940 C.ar   80  TRP80       0.0012
     23  CZ2      180.4270  123.9330   30.8740 C.ar   80  TRP80       0.0191
     24  CZ3      179.8540  123.9330   33.2340 C.ar   80  TRP80       0.0001
     25  CH2      180.3230  123.2750   32.0770 C.ar   80  TRP80       0.0015
     26  N        176.5650  127.2800   37.6110 N.3    84  TRP84      -0.1241
     27  CA       177.5280  127.4670   38.6920 C.3    84  TRP84       0.1605
     28  C        176.8710  128.0600   39.9330 C.2    84  TRP84       0.2264
     29  O        177.1250  127.6110   41.0410 O.2    84  TRP84      -0.2867
     30  CB       178.6640  128.4000   38.2710 C.3    84  TRP84       0.0550
     31  CG       179.6070  127.8760   37.2330 C.ar   84  TRP84       0.0003
     32  CD1      179.9300  126.5610   36.9720 C.ar   84  TRP84       0.0946
     33  CD2      180.3560  128.6670   36.2990 C.ar   84  TRP84       0.0152
     34  NE1      180.8270  126.4990   35.9390 N.ar   84  TRP84      -0.2442
     35  CE2      181.1070  127.7730   35.5030 C.ar   84  TRP84       0.0810
     36  CE3      180.4630  130.0520   36.0590 C.ar   84  TRP84       0.0012
     37  CZ2      181.9590  128.2210   34.4680 C.ar   84  TRP84       0.0191
     38  CZ3      181.3090  130.4970   35.0300 C.ar   84  TRP84       0.0001
     39  CH2      182.0450  129.5810   34.2490 C.ar   84  TRP84       0.0015
     40  N        175.7960  130.2220   24.3330 N.3   120  GLY120     -0.1225
     41  CA       176.2530  130.8360   25.5750 C.3   120  GLY120      0.1811
     42  C        175.5120  132.1050   25.9830 C.2   120  GLY120      0.2280
     43  O        175.8820  132.7510   26.9620 O.2   120  GLY120     -0.2866
     44  N        176.4060  125.2840   21.5240 N.3   127  HIS127     -0.1241
     45  CA       177.7210  124.7280   21.8140 C.3   127  HIS127      0.1621
     46  C        177.4310  123.6970   22.9060 C.2   127  HIS127      0.2264
     47  O        176.4850  123.8660   23.6820 O.2   127  HIS127     -0.2867
     48  CB       178.5830  125.8880   22.3270 C.3   127  HIS127      0.0745
     49  CG       180.0320  125.5700   22.5210 C.ar  127  HIS127      0.0817
     50  ND1      180.4880  124.7420   23.5230 N.ar  127  HIS127     -0.2268
     51  CD2      181.1340  126.0660   21.9150 C.ar  127  HIS127      0.1154
     52  CE1      181.8100  124.7500   23.5290 C.ar  127  HIS127      0.1986
     53  NE2      182.2240  125.5470   22.5610 N.ar  127  HIS127     -0.2212
     54  N        179.1760  122.8860   25.6550 N.3   129  ALA129     -0.1231
     55  CA       179.4580  123.3150   27.0310 C.3   129  ALA129      0.1679
     56  C        178.2370  124.0370   27.6170 C.2   129  ALA129      0.2434
     57  O        177.7480  123.6350   28.6640 O.2   129  ALA129     -0.2733
     58  CB       180.7430  124.1540   27.1190 C.3   129  ALA129      0.0304
     59  N        177.7290  125.1120   26.9670 N.am  130  PRO130     -0.2729
     60  CA       176.5390  125.7670   27.5410 C.3   130  PRO130      0.1401
     61  C        175.2650  124.8970   27.4890 C.2   130  PRO130      0.2269
     62  O        174.3180  125.1430   28.2330 O.2   130  PRO130     -0.2865
     63  CB       176.4080  127.0660   26.7240 C.3   130  PRO130      0.0296
     64  CG       177.2020  126.8180   25.4760 C.3   130  PRO130      0.0237
     65  CD       178.3640  125.9880   25.9580 C.3   130  PRO130      0.0939
     66  N        175.2910  121.6120   28.1630 N.3   132  TYR132     -0.1241
     67  CA       175.4210  120.8140   29.3820 C.3   132  TYR132      0.1605
     68  C        175.0100  121.6380   30.6130 C.2   132  TYR132      0.2264
     69  O        174.3090  121.1490   31.5030 O.2   132  TYR132     -0.2867
     70  CB       176.8690  120.3220   29.5360 C.3   132  TYR132      0.0534
     71  CG       177.2580  119.8620   30.9430 C.ar  132  TYR132     -0.0201
     72  CD1      177.0240  118.5570   31.3660 C.ar  132  TYR132     -0.0009
     73  CD2      177.9000  120.7280   31.8300 C.ar  132  TYR132     -0.0009
     74  CE1      177.4210  118.1190   32.6340 C.ar  132  TYR132      0.0417
     75  CE2      178.3090  120.2970   33.1120 C.ar  132  TYR132      0.0417
     76  CZ       178.0720  118.9920   33.5030 C.ar  132  TYR132      0.1957
     77  OH       178.5470  118.5370   34.7260 O.3   132  TYR132     -0.2866
     78  N        185.9380  122.4850   17.7780 N.3   176  GLU176     -0.1245
     79  CA       186.9510  121.5400   18.2280 C.3   176  GLU176      0.1567
     80  C        186.4260  120.2650   18.8830 C.2   176  GLU176      0.2260
     81  O        185.2670  120.1670   19.2720 O.2   176  GLU176     -0.2867
     82  CB       187.9590  122.2420   19.1640 C.3   176  GLU176      0.0388
     83  CG       187.4330  122.6310   20.5670 C.3   176  GLU176      0.1160
     84  CD       186.6380  123.9550   20.6220 C.2   176  GLU176      0.3649
     85  OE1      186.5530  124.7070   19.6060 O.co2 176  GLU176     -0.2457
     86  OE2      186.1030  124.2390   21.7200 O.co2 176  GLU176     -0.2457
     87  N        185.6720  116.6750   26.6740 N.3   180  ARG180     -0.1245
     88  CA       184.5600  117.3960   27.2750 C.3   180  ARG180      0.1563
     89  C        183.2700  117.1590   26.4860 C.2   180  ARG180      0.2260
     90  O        182.1910  117.0550   27.0650 O.2   180  ARG180     -0.2867
     91  CB       184.8140  118.9130   27.2940 C.3   180  ARG180      0.0307
     92  CG       185.9240  119.4480   28.1960 C.3   180  ARG180      0.0489
     93  CD       186.1300  120.9730   27.9360 C.3   180  ARG180      0.2205
     94  NE       186.4920  121.2620   26.5360 N.pl3 180  ARG180     -0.0865
     95  CZ       186.1240  122.3430   25.8360 C.cat 180  ARG180      0.5346
     96  NH1      186.5220  122.4690   24.5760 N.pl3 180  ARG180      0.1354
     97  NH2      185.3820  123.3130   26.3770 N.pl3 180  ARG180      0.1354
     98  N        181.3300  113.8930   27.2420 N.3   183  TYR183     -0.1227
     99  CA       180.6440  114.0230   28.5400 C.3   183  TYR183      0.1736
    100  C        179.4400  114.9750   28.4850 C.2   183  TYR183      0.2595
    101  O        178.3830  114.6680   29.0390 O.2   183  TYR183     -0.2718
    102  CB       181.6370  114.4670   29.6370 C.3   183  TYR183      0.0548
    103  CG       180.9950  114.8930   30.9420 C.ar  183  TYR183     -0.0200
    104  CD1      180.4040  113.9570   31.7920 C.ar  183  TYR183     -0.0009
    105  CD2      180.9800  116.2270   31.3300 C.ar  183  TYR183     -0.0009
    106  CE1      179.8100  114.3390   32.9990 C.ar  183  TYR183      0.0417
    107  CE2      180.3920  116.6170   32.5400 C.ar  183  TYR183      0.0417
    108  CZ       179.8100  115.6660   33.3620 C.ar  183  TYR183      0.1957
    109  OH       179.2250  116.0350   34.5490 O.3   183  TYR183     -0.2866
    110  N        179.5970  116.1290   27.8350 N.am  184  CYS184     -0.1970
    111  CA       178.4970  117.0850   27.7220 C.3   184  CYS184      0.1712
    112  C        177.3200  116.4020   27.0340 C.2   184  CYS184      0.2296
    113  O        176.1750  116.5290   27.4710 O.2   184  CYS184     -0.2864
    114  CB       178.9230  118.3240   26.9220 C.3   184  CYS184      0.0983
    115  SG       180.0370  119.4390   27.7990 S.3   184  CYS184     -0.0798
    116  N        195.1640  115.0110   32.2740 N.3   226  HIS226     -0.1241
    117  CA       194.6440  116.2360   32.8530 C.3   226  HIS226      0.1621
    118  C        193.3890  115.9540   33.6870 C.2   226  HIS226      0.2264
    119  O        192.5120  115.2080   33.2610 O.2   226  HIS226     -0.2867
    120  CB       194.3130  117.1490   31.6850 C.3   226  HIS226      0.0745
    121  CG       193.9090  118.5200   32.0770 C.ar  226  HIS226      0.0817
    122  ND1      192.6150  118.8410   32.4240 N.ar  226  HIS226     -0.2268
    123  CD2      194.6230  119.6680   32.1510 C.ar  226  HIS226      0.1154
    124  CE1      192.5480  120.1310   32.6970 C.ar  226  HIS226      0.1986
    125  NE2      193.7540  120.6540   32.5400 N.ar  226  HIS226     -0.2212
    126  N        190.6470  117.7990   34.5300 N.3   228  GLY228     -0.1210
    127  CA       189.3300  118.1400   34.0070 C.3   228  GLY228      0.1956
    128  C        188.8790  117.1610   32.9290 C.2   228  GLY228      0.2611
    129  O        187.7320  116.7020   32.9380 O.2   228  GLY228     -0.2717
    130  N        189.7920  116.8230   32.0190 N.am  229  TYR229     -0.1976
    131  CA       189.4860  115.8890   30.9410 C.3   229  TYR229      0.1639
    132  C        189.2590  114.4850   31.4530 C.2   229  TYR229      0.2290
    133  O        188.4220  113.7650   30.9060 O.2   229  TYR229     -0.2864
    134  CB       190.5900  115.8750   29.8850 C.3   229  TYR229      0.0560
    135  CG       190.6410  117.1580   29.1270 C.ar  229  TYR229     -0.0198
    136  CD1      191.7420  117.9860   29.2150 C.ar  229  TYR229     -0.0009
    137  CD2      189.5430  117.5880   28.3810 C.ar  229  TYR229     -0.0009
    138  CE1      191.7580  119.2400   28.5840 C.ar  229  TYR229      0.0417
    139  CE2      189.5390  118.8340   27.7410 C.ar  229  TYR229      0.0417
    140  CZ       190.6540  119.6600   27.8510 C.ar  229  TYR229      0.1957
    141  OH       190.6710  120.9050   27.2550 O.3   229  TYR229     -0.2866
    142  N        185.7220  114.0870   32.7790 N.3   232  CYS232     -0.1235
    143  CA       184.8120  113.9960   31.6170 C.3   232  CYS232      0.1677
    144  C        184.8520  112.6220   30.9620 C.2   232  CYS232      0.2270
    145  O        183.8140  112.0620   30.6200 O.2   232  CYS232     -0.2867
    146  CB       185.1220  115.0790   30.5640 C.3   232  CYS232      0.0956
    147  SG       184.7880  116.7810   31.0800 S.3   232  CYS232     -0.0801
    148  N        195.0510  123.5160   42.9980 N.3   275  ASP275     -0.1239
    149  CA       193.9850  124.4190   42.5800 C.3   275  ASP275      0.1674
    150  C        192.6580  123.9150   43.1310 C.2   275  ASP275      0.2266
    151  O        192.2250  122.8160   42.8280 O.2   275  ASP275     -0.2867
    152  CB       193.9120  124.5420   41.0480 C.3   275  ASP275      0.1410
    153  CG       192.8110  125.5060   40.5810 C.2   275  ASP275      0.3668
    154  OD1      191.8900  125.8210   41.3480 O.co2 275  ASP275     -0.2456
    155  OD2      192.8500  125.9780   39.4320 O.co2 275  ASP275     -0.2456
    156  N        189.5780  124.2310   42.2770 N.3   277  CYS277     -0.1221
    157  CA       188.5430  123.6990   41.3890 C.3   277  CYS277      0.1808
    158  C        188.7550  122.2170   41.1430 C.2   277  CYS277      0.2601
    159  O        187.8090  121.4960   40.8480 O.2   277  CYS277     -0.2717
    160  CB       188.4510  124.4830   40.0730 C.3   277  CYS277      0.0970
    161  SG       189.8520  124.3280   38.9460 S.3   277  CYS277     -0.0800
    162  N        189.9910  121.7610   41.3050 N.am  278  TYR278     -0.1976
    163  CA       190.3080  120.3500   41.1320 C.3   278  TYR278      0.1639
    164  C        189.8540  119.5010   42.3070 C.2   278  TYR278      0.2290
    165  O        190.0640  118.2890   42.3300 O.2   278  TYR278     -0.2864
    166  CB       191.7950  120.1450   40.8720 C.3   278  TYR278      0.0560
    167  CG       192.1700  120.5460   39.4620 C.ar  278  TYR278     -0.0198
    168  CD1      193.0380  121.6090   39.2310 C.ar  278  TYR278     -0.0009
    169  CD2      191.5870  119.9120   38.3550 C.ar  278  TYR278     -0.0009
    170  CE1      193.3100  122.0430   37.9370 C.ar  278  TYR278      0.0417
    171  CE2      191.8570  120.3300   37.0670 C.ar  278  TYR278      0.0417
    172  CZ       192.7210  121.3970   36.8630 C.ar  278  TYR278      0.1957
    173  OH       193.0300  121.8060   35.5870 O.3   278  TYR278     -0.2866
    174  N        186.9290  118.0750   40.0570 N.3   281  TRP281     -0.1241
    175  CA       187.3520  117.2980   38.9040 C.3   281  TRP281      0.1605
    176  C        188.2100  116.1210   39.2930 C.2   281  TRP281      0.2264
    177  O        188.0240  115.0400   38.7640 O.2   281  TRP281     -0.2867
    178  CB       188.1100  118.1470   37.8970 C.3   281  TRP281      0.0550
    179  CG       187.3900  119.3770   37.4170 C.ar  281  TRP281      0.0003
    180  CD1      187.8480  120.6550   37.4940 C.ar  281  TRP281      0.0946
    181  CD2      186.1220  119.4450   36.7330 C.ar  281  TRP281      0.0152
    182  NE1      186.9530  121.5170   36.9010 N.ar  281  TRP281     -0.2442
    183  CE2      185.8860  120.8010   36.4260 C.ar  281  TRP281      0.0810
    184  CE3      185.1690  118.4870   36.3430 C.ar  281  TRP281      0.0012
    185  CZ2      184.7400  121.2340   35.7500 C.ar  281  TRP281      0.0191
    186  CZ3      184.0260  118.9150   35.6710 C.ar  281  TRP281      0.0001
    187  CH2      183.8230  120.2810   35.3810 C.ar  281  TRP281      0.0015
    188  N        190.7610  129.6080   43.6550 N.3   330  ASP330     -0.1239
    189  CA       191.8370  128.7080   43.2610 C.3   330  ASP330      0.1674
    190  C        192.7510  128.4200   44.4610 C.2   330  ASP330      0.2266
    191  O        192.8240  127.3020   44.9530 O.2   330  ASP330     -0.2867
    192  CB       192.6080  129.3970   42.1030 C.3   330  ASP330      0.1410
    193  CG       193.9120  128.6840   41.6870 C.2   330  ASP330      0.3668
    194  OD1      194.4440  127.8050   42.3810 O.co2 330  ASP330     -0.2456
    195  OD2      194.4440  129.0430   40.6250 O.co2 330  ASP330     -0.2456
    196  N        185.5750  133.7400   42.0090 N.3   337  ASP337     -0.1239
    197  CA       184.7770  133.7200   40.8050 C.3   337  ASP337      0.1674
    198  C        183.7270  132.6400   40.9980 C.2   337  ASP337      0.2266
    199  O        183.8550  131.7920   41.8800 O.2   337  ASP337     -0.2867
    200  CB       185.6300  133.5250   39.5470 C.3   337  ASP337      0.1410
    201  CG       186.4460  132.2810   39.5790 C.2   337  ASP337      0.3668
    202  OD1      185.8700  131.2070   39.4480 O.co2 337  ASP337     -0.2456
    203  OD2      187.6760  132.3600   39.6920 O.co2 337  ASP337     -0.2456
    204  N        182.9000  130.1410   39.0850 N.3   339  TYR339     -0.1227
    205  CA       183.3860  128.8290   38.6620 C.3   339  TYR339      0.1736
    206  C        184.0210  128.1140   39.8520 C.2   339  TYR339      0.2595
    207  O        183.6650  126.9740   40.1740 O.2   339  TYR339     -0.2718
    208  CB       184.4160  129.0020   37.5280 C.3   339  TYR339      0.0548
    209  CG       185.2850  127.7860   37.2610 C.ar  339  TYR339     -0.0200
    210  CD1      184.8110  126.7080   36.4960 C.ar  339  TYR339     -0.0009
    211  CD2      186.5810  127.7000   37.7800 C.ar  339  TYR339     -0.0009
    212  CE1      185.6190  125.5740   36.2610 C.ar  339  TYR339      0.0417
    213  CE2      187.3730  126.5800   37.5520 C.ar  339  TYR339      0.0417
    214  CZ       186.8850  125.5240   36.7970 C.ar  339  TYR339      0.1957
    215  OH       187.6540  124.4060   36.6250 O.3   339  TYR339     -0.2866
    216  N        184.9630  128.7880   40.5070 N.am  340  HIS340     -0.1975
    217  CA       185.6620  128.2220   41.6600 C.3   340  HIS340      0.1656
    218  C        184.7500  128.0600   42.8800 C.2   340  HIS340      0.2291
    219  O        184.9260  127.1380   43.6720 O.2   340  HIS340     -0.2864
    220  CB       186.8930  129.0440   41.9990 C.3   340  HIS340      0.0771
    221  CG       188.0250  128.8560   41.0380 C.ar  340  HIS340      0.0820
    222  ND1      188.3040  129.7630   40.0400 N.ar  340  HIS340     -0.2267
    223  CD2      188.9700  127.8960   40.9440 C.ar  340  HIS340      0.1154
    224  CE1      189.3850  129.3750   39.3820 C.ar  340  HIS340      0.1986
    225  NE2      189.8020  128.2390   39.9040 N.ar  340  HIS340     -0.2212
    226  N        182.9150  124.7040   42.0720 N.3   343  TYR343     -0.1241
    227  CA       183.7290  123.4970   42.2030 C.3   343  TYR343      0.1605
    228  C        184.4280  123.2940   43.5380 C.2   343  TYR343      0.2264
    229  O        184.7430  122.1680   43.9170 O.2   343  TYR343     -0.2867
    230  CB       184.6680  123.3280   40.9880 C.3   343  TYR343      0.0534
    231  CG       183.8700  123.0860   39.7200 C.ar  343  TYR343     -0.0201
    232  CD1      183.6220  124.1230   38.8210 C.ar  343  TYR343     -0.0009
    233  CD2      183.2530  121.8530   39.4870 C.ar  343  TYR343     -0.0009
    234  CE1      182.7700  123.9510   37.7330 C.ar  343  TYR343      0.0417
    235  CE2      182.4060  121.6600   38.3970 C.ar  343  TYR343      0.0417
    236  CZ       182.1640  122.7150   37.5210 C.ar  343  TYR343      0.1957
    237  OH       181.3240  122.5380   36.4360 O.3   343  TYR343     -0.2866
@<TRIPOS>BOND
     1    78    79    1
     2    79    80    1
     3    79    82    1
     4    80    81    2
     5    82    83    1
     6    85    84   ar
     7    83    84    1
     8    84    86   ar
     9    44    45    1
    10    45    48    1
    11    45    46    1
    12    51    49   ar
    13    51    53   ar
    14    48    49    1
    15    49    50   ar
    16    53    52   ar
    17    46    47    2
    18    50    52   ar
    19    40    41    1
    20    96    95    1
    21     5     2    1
    22    64    65    1
    23    64    63    1
    24    41    42    1
    25    54    55    1
    26    95    97    1
    27    95    94    2
    28    65    59    1
    29     2     1    1
    30     2     3    1
    31    42    43    2
    32     4     3    2
    33    89    90    2
    34    89    88    1
    35    94    93    1
    36    87    88    1
    37    63    60    1
    38     3     6   am
    39   114   111    1
    40   114   115    1
    41    59    60    1
    42    59    56   am
    43    55    58    1
    44    55    56    1
    45   112   113    2
    46   112   111    1
    47    98    99    1
    48   141   140    1
    49    88    91    1
    50    91    92    1
    51    61    60    1
    52    61    62    2
    53    56    57    2
    54   111   110    1
    55   139   140   ar
    56   139   137   ar
    57   110   100   am
    58   140   138   ar
    59    93    92    1
    60     6     7    1
    61    66    67    1
    62   137   135   ar
    63   100    99    1
    64   100   101    2
    65    99   102    1
    66   138   136   ar
    67     7    10    1
    68     7     8    1
    69   135   136   ar
    70   135   134    1
    71    11    10    1
    72    67    70    1
    73    67    68    1
    74    70    71    1
    75   102   103    1
    76    20    18   ar
    77    20    21   ar
    78   134   131    1
    79     8     9    2
    80    18    17   ar
    81   146   147    1
    82   146   143    1
    83    68    69    2
    84   145   144    2
    85    21    23   ar
    86    21    19   ar
    87    23    25   ar
    88   133   132    2
    89   131   132    1
    90   131   130    1
    91   103   105   ar
    92   103   104   ar
    93    71    72   ar
    94    71    73   ar
    95   144   143    1
    96   105   107   ar
    97    72    74   ar
    98    17    19   ar
    99    17    16    1
   100   143   142    1
   101   120   121    1
   102   120   117    1
   103   104   106   ar
   104    73    75   ar
   105    12    13    1
   106    19    22   ar
   107   130   128   am
   108   121   123   ar
   109   121   122   ar
   110    25    24   ar
   111   123   125   ar
   112   116   117    1
   113    16    13    1
   114   122   124   ar
   115   107   108   ar
   116   125   124   ar
   117    74    76   ar
   118   117   118    1
   119    13    14    1
   120   128   129    2
   121   128   127    1
   122   106   108   ar
   123    75    76   ar
   124    22    24   ar
   125   119   118    2
   126   108   109    1
   127    76    77    1
   128   127   126    1
   129    14    15    2
   130    39    37   ar
   131    39    38   ar
   132    37    35   ar
   133    38    36   ar
   134   187   186   ar
   135   187   185   ar
   136    35    34   ar
   137    35    33   ar
   138   173   172    1
   139   186   184   ar
   140   185   183   ar
   141    34    32   ar
   142    36    33   ar
   143   212   210   ar
   144   212   214   ar
   145    33    31   ar
   146   184   181   ar
   147   183   181   ar
   148   183   182   ar
   149   237   236    1
   150   210   209   ar
   151   215   214    1
   152   181   179   ar
   153   214   213   ar
   154   172   171   ar
   155   172   170   ar
   156   182   180   ar
   157    32    31   ar
   158   171   169   ar
   159    31    30    1
   160   209   208    1
   161   209   211   ar
   162   179   180   ar
   163   179   178    1
   164   236   234   ar
   165   236   235   ar
   166   208   205    1
   167   213   211   ar
   168    26    27    1
   169   234   232   ar
   170   178   175    1
   171   170   168   ar
   172    30    27    1
   173   169   167   ar
   174   235   233   ar
   175   205   204    1
   176   205   206    1
   177    27    28    1
   178   177   176    2
   179   232   231   ar
   180   175   176    1
   181   175   174    1
   182   161   160    1
   183   168   167   ar
   184   224   225   ar
   185   224   222   ar
   186   155   153   ar
   187   202   201   ar
   188   167   166    1
   189   233   231   ar
   190   200   201    1
   191   200   197    1
   192   201   203   ar
   193   231   230    1
   194   206   207    2
   195   206   216   am
   196   225   223   ar
   197    28    29    2
   198   222   221   ar
   199   160   157    1
   200   216   217    1
   201   153   152    1
   202   153   154   ar
   203   195   193   ar
   204   197   198    1
   205   197   196    1
   206   159   158    2
   207   166   163    1
   208   223   221   ar
   209   230   227    1
   210   198   199    2
   211   221   220    1
   212   152   149    1
   213   163   162    1
   214   163   164    1
   215   158   162   am
   216   158   157    1
   217   157   156    1
   218   217   220    1
   219   217   218    1
   220   193   192    1
   221   193   194   ar
   222   226   227    1
   223   192   189    1
   224   227   228    1
   225   164   165    2
   226   149   148    1
   227   149   150    1
   228   151   150    2
   229   218   219    2
   230   189   188    1
   231   189   190    1
   232   228   229    2
   233   190   191    2
