@<TRIPOS>MOLECULE
tmp/1o23A00.pdb
 83 80 0 0 0
SMALL
GASTEIGER

@<TRIPOS>ATOM
      1  N          1.5180   16.1440  -35.1300 N.3     2  GLU2       -0.1245
      2  CA         0.6580   17.3150  -35.2140 C.3     2  GLU2        0.1567
      3  C          1.1080   18.2650  -36.2880 C.2     2  GLU2        0.2260
      4  O          2.1130   18.9270  -36.1350 O.2     2  GLU2       -0.2867
      5  CB         0.6180   18.0590  -33.8800 C.3     2  GLU2        0.0388
      6  CG        -0.5320   17.6400  -32.9800 C.3     2  GLU2        0.1160
      7  CD        -0.8890   18.7030  -31.9390 C.2     2  GLU2        0.3649
      8  OE1       -1.0550   19.8930  -32.3220 O.co2   2  GLU2       -0.2457
      9  OE2       -1.0190   18.3370  -30.7430 O.co2   2  GLU2       -0.2457
     10  N         -9.1390   20.2910  -39.5370 N.3    31  PHE31      -0.1227
     11  CA        -8.8800   20.7770  -38.1760 C.3    31  PHE31       0.1736
     12  C         -9.8760   20.1700  -37.2380 C.2    31  PHE31       0.2595
     13  O         -9.5230   19.7140  -36.1490 O.2    31  PHE31      -0.2718
     14  CB        -9.0250   22.3040  -38.0400 C.3    31  PHE31       0.0547
     15  CG        -8.9320   22.7910  -36.6020 C.ar   31  PHE31      -0.0202
     16  CD1       -7.6970   23.0080  -36.0030 C.ar   31  PHE31      -0.0042
     17  CD2      -10.0560   22.9060  -35.8230 C.ar   31  PHE31      -0.0042
     18  CE1       -7.5970   23.3250  -34.6320 C.ar   31  PHE31      -0.0003
     19  CE2       -9.9700   23.2200  -34.4560 C.ar   31  PHE31      -0.0003
     20  CZ        -8.7360   23.4280  -33.8620 C.ar   31  PHE31      -0.0000
     21  N        -11.1480   20.2040  -37.6280 N.am   32  HIS32      -0.1961
     22  CA       -12.1840   19.6450  -36.7670 C.3    32  HIS32       0.1787
     23  C        -12.2040   18.1380  -36.7840 C.2    32  HIS32       0.2621
     24  O        -12.6860   17.5280  -35.8390 O.2    32  HIS32      -0.2715
     25  CB       -13.5690   20.1690  -37.1440 C.3    32  HIS32       0.0785
     26  CG       -13.7860   21.5990  -36.7740 C.ar   32  HIS32       0.0821
     27  ND1      -13.8090   22.6130  -37.7080 N.ar   32  HIS32      -0.2267
     28  CD2      -13.8830   22.1960  -35.5620 C.ar   32  HIS32       0.1154
     29  CE1      -13.9020   23.7750  -37.0820 C.ar   32  HIS32       0.1986
     30  NE2      -13.9460   23.5510  -35.7800 N.ar   32  HIS32      -0.2212
     31  N        -11.6590   17.5300  -37.8340 N.am   33  THR33      -0.1937
     32  CA       -11.6700   16.0690  -37.9190 C.3    33  THR33       0.2028
     33  C        -10.5720   15.3730  -37.1140 C.2    33  THR33       0.2643
     34  O        -10.8590   14.3980  -36.4150 O.2    33  THR33      -0.2714
     35  CB       -11.5890   15.5550  -39.3820 C.3    33  THR33       0.1808
     36  OG1      -12.7090   16.0330  -40.1380 O.3    33  THR33      -0.2208
     37  CG2      -11.6030   14.0480  -39.3850 C.3    33  THR33       0.0379
     38  N         -9.3330   15.8540  -37.2190 N.am   34  SER34      -0.1935
     39  CA        -8.2090   15.2510  -36.4710 C.3    34  SER34       0.2055
     40  C         -7.2520   16.2640  -35.8470 C.2    34  SER34       0.2643
     41  O         -6.1480   15.9060  -35.4540 O.2    34  SER34      -0.2714
     42  CB        -7.3720   14.3580  -37.3810 C.3    34  SER34       0.2130
     43  OG        -6.9260   15.1010  -38.4870 O.3    34  SER34      -0.2179
     44  N         -7.6570   17.5210  -35.7640 N.am   35  GLY35      -0.1954
     45  CA        -6.7700   18.5180  -35.1960 C.3    35  GLY35       0.1869
     46  C         -5.4490   18.4740  -35.9370 C.2    35  GLY35       0.2309
     47  O         -4.3960   18.7460  -35.3610 O.2    35  GLY35      -0.2863
     48  N         -3.7380   16.0030  -36.7850 N.3    37  ASP37      -0.1239
     49  CA        -2.7720   15.0160  -36.3680 C.3    37  ASP37       0.1674
     50  C         -2.8340   13.7540  -37.2160 C.2    37  ASP37       0.2266
     51  O         -3.8200   13.0300  -37.1830 O.2    37  ASP37      -0.2867
     52  CB        -2.9560   14.6870  -34.8910 C.3    37  ASP37       0.1410
     53  CG        -1.9490   13.6560  -34.4000 C.2    37  ASP37       0.3668
     54  OD1       -0.9340   13.4280  -35.0950 O.co2  37  ASP37      -0.2456
     55  OD2       -2.1760   13.0710  -33.3170 O.co2  37  ASP37      -0.2456
     56  N         -3.8030   10.5190  -35.4830 N.3    40  ALA40      -0.1231
     57  CA        -5.0780   10.5180  -34.7820 C.3    40  ALA40       0.1694
     58  C         -5.7960    9.1900  -34.9620 C.2    40  ALA40       0.2592
     59  O         -5.9050    8.6780  -36.0620 O.2    40  ALA40      -0.2718
     60  CB        -5.9590   11.6450  -35.3080 C.3    40  ALA40       0.0304
     61  N         -6.2930    8.6280  -33.8740 N.am   41  VAL41      -0.1966
     62  CA        -7.0170    7.3790  -33.9530 C.3    41  VAL41       0.1727
     63  C         -8.2190    7.5630  -33.0510 C.2    41  VAL41       0.2616
     64  O         -8.0810    8.0250  -31.9220 O.2    41  VAL41      -0.2715
     65  CB        -6.1470    6.2030  -33.4740 C.3    41  VAL41       0.0290
     66  CG1       -6.9730    4.9360  -33.3990 C.3    41  VAL41       0.0023
     67  CG2       -5.0120    5.9870  -34.4420 C.3    41  VAL41       0.0023
     68  N         -9.4070    7.2300  -33.5410 N.am   42  VAL42      -0.1977
     69  CA       -10.6030    7.4080  -32.7260 C.3    42  VAL42       0.1596
     70  C        -11.6120    6.3030  -32.9290 C.2    42  VAL42       0.2287
     71  O        -11.7840    5.8230  -34.0450 O.2    42  VAL42      -0.2864
     72  CB       -11.3060    8.7420  -33.0590 C.3    42  VAL42       0.0276
     73  CG1      -12.4970    8.9320  -32.1500 C.3    42  VAL42       0.0022
     74  CG2      -10.3220    9.9100  -32.9420 C.3    42  VAL42       0.0022
     75  N         -9.1690   10.6980  -40.8600 N.3    54  GLN54      -0.1245
     76  CA       -10.0450    9.8600  -40.0670 C.3    54  GLN54       0.1566
     77  C        -10.8510    8.8560  -40.9350 C.2    54  GLN54       0.2260
     78  O        -12.0630    8.7100  -40.8260 O.2    54  GLN54      -0.2867
     79  CB       -10.9460   10.7420  -39.1990 C.3    54  GLN54       0.0367
     80  CG       -10.2030   11.3230  -37.9710 C.3    54  GLN54       0.0905
     81  CD        -9.8100   10.2470  -36.9430 C.2    54  GLN54       0.2608
     82  OE1      -10.6000    9.8840  -36.0940 O.2    54  GLN54      -0.2717
     83  NE2       -8.6000    9.7340  -37.0420 N.am   54  GLN54      -0.0878
@<TRIPOS>BOND
     1    77    78    2
     2    77    76    1
     3    75    76    1
     4    36    35    1
     5    76    79    1
     6    10    11    1
     7    37    35    1
     8    35    32    1
     9    79    80    1
    10    43    42    1
    11    11    14    1
    12    11    12    1
    13    14    15    1
    14    80    81    1
    15    32    31    1
    16    32    33    1
    17    31    23   am
    18    27    29   ar
    19    27    26   ar
    20    21    12   am
    21    21    22    1
    22    42    39    1
    23    12    13    2
    24    38    33   am
    25    38    39    1
    26    50    51    2
    27    50    49    1
    28    25    26    1
    29    25    22    1
    30    33    34    2
    31    29    30   ar
    32    83    81   am
    33    81    82    2
    34    48    49    1
    35    23    22    1
    36    23    24    2
    37    26    28   ar
    38    15    16   ar
    39    15    17   ar
    40    39    40    1
    41    49    52    1
    42     3     4    2
    43     3     2    1
    44    59    58    2
    45    16    18   ar
    46    46    47    2
    47    46    45    1
    48    40    44   am
    49    40    41    2
    50    17    19   ar
    51    30    28   ar
    52    44    45    1
    53    56    57    1
    54    60    57    1
    55     2     1    1
    56     2     5    1
    57    54    53   ar
    58    58    57    1
    59    58    61   am
    60    52    53    1
    61    18    20   ar
    62    19    20   ar
    63    67    65    1
    64    53    55   ar
    65    71    70    2
    66    62    61    1
    67    62    65    1
    68    62    63    1
    69     5     6    1
    70    68    63   am
    71    68    69    1
    72    65    66    1
    73    72    74    1
    74    72    69    1
    75    72    73    1
    76    63    64    2
    77     6     7    1
    78    70    69    1
    79     8     7   ar
    80     7     9   ar
