@<TRIPOS>MOLECULE
tmp/1o23D01.pdb
 101 97 0 0 0
SMALL
GASTEIGER

@<TRIPOS>ATOM
      1  N        -23.9250    3.9540    4.2330 N.3    25  LEU25      -0.1231
      2  CA       -24.3510    5.3260    4.4410 C.3    25  LEU25       0.1693
      3  C        -25.3500    5.7860    3.3720 C.2    25  LEU25       0.2591
      4  O        -26.2200    6.6130    3.6440 O.2    25  LEU25      -0.2718
      5  CB       -23.1370    6.2530    4.4820 C.3    25  LEU25       0.0284
      6  CG       -22.3040    6.1360    5.7570 C.3    25  LEU25       0.0019
      7  CD1      -21.2300    7.2260    5.7540 C.3    25  LEU25       0.0001
      8  CD2      -23.2040    6.2800    6.9880 C.3    25  LEU25       0.0001
      9  N        -25.2270    5.2440    2.1620 N.am   26  LYS26      -0.1980
     10  CA       -26.1460    5.5930    1.0800 C.3    26  LYS26       0.1596
     11  C        -27.5430    5.1680    1.5140 C.2    26  LYS26       0.2287
     12  O        -28.4910    5.9200    1.3580 O.2    26  LYS26      -0.2864
     13  CB       -25.7590    4.8790   -0.2220 C.3    26  LYS26       0.0298
     14  CG       -24.4260    5.3400   -0.8350 C.3    26  LYS26       0.0038
     15  CD       -24.5010    6.7870   -1.3180 C.3    26  LYS26       0.0206
     16  CE       -23.1160    7.4560   -1.4150 C.3    26  LYS26       0.1093
     17  NZ       -22.1420    6.8280   -2.3650 N.3    26  LYS26      -0.1314
     18  N        -28.8020    7.2630    4.3790 N.3    29  GLU29      -0.1245
     19  CA       -29.2050    8.5340    3.8220 C.3    29  GLU29       0.1567
     20  C        -30.5960    8.3210    3.2060 C.2    29  GLU29       0.2260
     21  O        -31.4900    9.1700    3.3260 O.2    29  GLU29      -0.2867
     22  CB       -28.1830    8.9510    2.7680 C.3    29  GLU29       0.0388
     23  CG       -28.5090   10.2340    2.0530 C.3    29  GLU29       0.1160
     24  CD       -27.4150   10.6490    1.0800 C.2    29  GLU29       0.3649
     25  OE1      -27.6490   11.6350    0.3360 O.co2  29  GLU29      -0.2457
     26  OE2      -26.3330   10.0000    1.0730 O.co2  29  GLU29      -0.2457
     27  N        -13.8380    6.1250   11.4120 N.3    62  GLN62      -0.1245
     28  CA       -14.9070    6.0580   10.4110 C.3    62  GLN62       0.1566
     29  C        -15.9260    4.9350   10.6270 C.2    62  GLN62       0.2260
     30  O        -17.1390    5.1810   10.5660 O.2    62  GLN62      -0.2867
     31  CB       -14.3250    5.9370    8.9900 C.3    62  GLN62       0.0367
     32  CG       -15.3580    6.2260    7.8660 C.3    62  GLN62       0.0905
     33  CD       -15.9240    7.6400    7.9410 C.2    62  GLN62       0.2608
     34  OE1      -15.3540    8.5070    8.5930 O.2    62  GLN62      -0.2717
     35  NE2      -17.0300    7.8760    7.2670 N.am   62  GLN62      -0.0878
     36  N        -20.0520    5.2680   11.1810 N.3    66  LYS66      -0.1245
     37  CA       -21.1540    4.7630   10.3790 C.3    66  LYS66       0.1561
     38  C        -22.2180    4.1540   11.2730 C.2    66  LYS66       0.2260
     39  O        -23.4130    4.3310   11.0370 O.2    66  LYS66      -0.2867
     40  CB       -20.6610    3.7450    9.3420 C.3    66  LYS66       0.0271
     41  CG       -19.9620    4.4250    8.1670 C.3    66  LYS66       0.0035
     42  CD       -19.7860    3.5150    6.9600 C.3    66  LYS66       0.0206
     43  CE       -18.7170    2.4500    7.1900 C.3    66  LYS66       0.1093
     44  NZ       -18.4530    1.6100    5.9620 N.3    66  LYS66      -0.1314
     45  N        -15.9420   19.9330    5.5000 N.3   256  GLN256     -0.1245
     46  CA       -16.6370   19.0360    4.6000 C.3   256  GLN256      0.1566
     47  C        -18.0850   18.8940    5.0130 C.2   256  GLN256      0.2260
     48  O        -18.3780   18.7100    6.1950 O.2   256  GLN256     -0.2867
     49  CB       -15.9990   17.6570    4.6190 C.3   256  GLN256      0.0367
     50  CG       -14.5230   17.6290    4.2860 C.3   256  GLN256      0.0905
     51  CD       -13.9850   16.2060    4.2190 C.2   256  GLN256      0.2608
     52  OE1      -14.3530   15.4320    3.3230 O.2   256  GLN256     -0.2717
     53  NE2      -13.1230   15.8460    5.1700 N.am  256  GLN256     -0.0878
     54  N        -21.3950   16.5880    4.3160 N.3   258  TYR258     -0.1228
     55  CA       -21.8260   15.3530    3.6630 C.3   258  TYR258      0.1721
     56  C        -23.3130   15.3120    3.9090 C.2   258  TYR258      0.2437
     57  O        -23.8490   16.1040    4.6840 O.2   258  TYR258     -0.2733
     58  CB       -21.1670   14.1020    4.2670 C.3   258  TYR258      0.0547
     59  CG       -19.7150   13.8360    3.8650 C.ar  258  TYR258     -0.0200
     60  CD1      -18.6490   14.1510    4.7240 C.ar  258  TYR258     -0.0009
     61  CD2      -19.4130   13.2080    2.6640 C.ar  258  TYR258     -0.0009
     62  CE1      -17.3260   13.8360    4.3920 C.ar  258  TYR258      0.0417
     63  CE2      -18.0950   12.8870    2.3210 C.ar  258  TYR258      0.0417
     64  CZ       -17.0600   13.2000    3.1870 C.ar  258  TYR258      0.1957
     65  OH       -15.7630   12.8710    2.8330 O.3   258  TYR258     -0.2866
     66  N        -24.0120   14.3900    3.2530 N.am  259  PRO259     -0.2718
     67  CA       -25.4380   14.4320    3.5490 C.3   259  PRO259      0.1535
     68  C        -25.8220   14.1360    4.9870 C.2   259  PRO259      0.2598
     69  O        -26.8400   14.6350    5.4740 O.2   259  PRO259     -0.2715
     70  CB       -26.0410   13.4250    2.5580 C.3   259  PRO259      0.0310
     71  CG       -24.8930   12.6380    2.0560 C.3   259  PRO259      0.0237
     72  CD       -23.7180   13.5400    2.0890 C.3   259  PRO259      0.0939
     73  N        -25.0030   13.3600    5.6910 N.am  260  LEU260     -0.1964
     74  CA       -25.3750   12.9930    7.0450 C.3   260  LEU260      0.1728
     75  C        -24.6490   13.7100    8.1570 C.2   260  LEU260      0.2616
     76  O        -25.0390   13.6130    9.3130 O.2   260  LEU260     -0.2715
     77  CB       -25.2400   11.4720    7.2050 C.3   260  LEU260      0.0311
     78  CG       -26.2610   10.7120    6.3450 C.3   260  LEU260      0.0022
     79  CD1      -26.0370    9.1940    6.4240 C.3   260  LEU260      0.0001
     80  CD2      -27.6570   11.0890    6.8210 C.3   260  LEU260      0.0001
     81  N        -23.6040   14.4520    7.8320 N.am  261  TYR261     -0.1974
     82  CA       -22.8960   15.1300    8.8960 C.3   261  TYR261      0.1639
     83  C        -21.8910   16.1420    8.3760 C.2   261  TYR261      0.2290
     84  O        -21.5450   16.1410    7.2080 O.2   261  TYR261     -0.2864
     85  CB       -22.1680   14.0790    9.7420 C.3   261  TYR261      0.0560
     86  CG       -21.0770   13.3620    8.9810 C.ar  261  TYR261     -0.0198
     87  CD1      -19.7750   13.8360    8.9820 C.ar  261  TYR261     -0.0009
     88  CD2      -21.3520   12.2040    8.2520 C.ar  261  TYR261     -0.0009
     89  CE1      -18.7710   13.1700    8.2780 C.ar  261  TYR261      0.0417
     90  CE2      -20.3680   11.5470    7.5530 C.ar  261  TYR261      0.0417
     91  CZ       -19.0820   12.0250    7.5650 C.ar  261  TYR261      0.1957
     92  OH       -18.1010   11.3640    6.8540 O.3   261  TYR261     -0.2866
     93  N        -18.0520   17.3920    8.7420 N.3   263  LYS263     -0.1245
     94  CA       -16.7620   16.9540    9.2660 C.3   263  LYS263      0.1561
     95  C        -15.7600   18.1100    9.1610 C.2   263  LYS263      0.2260
     96  O        -15.3990   18.5020    8.0570 O.2   263  LYS263     -0.2867
     97  CB       -16.2540   15.7490    8.4640 C.3   263  LYS263      0.0271
     98  CG       -14.8630   15.2670    8.8690 C.3   263  LYS263      0.0035
     99  CD       -14.4440   14.0700    8.0410 C.3   263  LYS263      0.0206
    100  CE       -13.0840   13.5320    8.4540 C.3   263  LYS263      0.1093
    101  NZ       -12.7070   12.3060    7.6830 N.3   263  LYS263     -0.1314
@<TRIPOS>BOND
     1    17    16    1
     2    16    15    1
     3    15    14    1
     4    14    13    1
     5    13    10    1
     6    25    24   ar
     7    26    24   ar
     8    24    23    1
     9    10    11    1
    10    10     9    1
    11    12    11    2
    12    23    22    1
    13    71    72    1
    14    71    70    1
    15    72    66    1
    16     9     3   am
    17    63    61   ar
    18    63    64   ar
    19    70    67    1
    20    61    59   ar
    21    22    19    1
    22    65    64    1
    23    64    62   ar
    24    20    21    2
    25    20    19    1
    26    66    67    1
    27    66    56   am
    28    52    51    2
    29     3     4    2
    30     3     2    1
    31    67    68    1
    32    55    56    1
    33    55    58    1
    34    55    54    1
    35    19    18    1
    36    59    58    1
    37    59    60   ar
    38    56    57    2
    39    51    50    1
    40    51    53   am
    41     1     2    1
    42    50    49    1
    43    62    60   ar
    44     2     5    1
    45     5     6    1
    46    46    49    1
    47    46    47    1
    48    46    45    1
    49    68    69    2
    50    68    73   am
    51    47    48    2
    52    73    74    1
    53     7     6    1
    54     6     8    1
    55    44    43    1
    56    78    79    1
    57    78    80    1
    58    78    77    1
    59    92    91    1
    60    42    43    1
    61    42    41    1
    62    74    77    1
    63    74    75    1
    64    84    83    2
    65    35    33   am
    66    90    91   ar
    67    90    88   ar
    68    91    89   ar
    69   101   100    1
    70    81    75   am
    71    81    82    1
    72    32    33    1
    73    32    31    1
    74    33    34    2
    75    99   100    1
    76    99    98    1
    77    96    95    2
    78    75    76    2
    79    41    40    1
    80    88    86   ar
    81    89    87   ar
    82    83    82    1
    83    97    98    1
    84    97    94    1
    85    93    94    1
    86    82    85    1
    87    86    87   ar
    88    86    85    1
    89    31    28    1
    90    95    94    1
    91    40    37    1
    92    37    36    1
    93    37    38    1
    94    28    29    1
    95    28    27    1
    96    30    29    2
    97    39    38    2
