@<TRIPOS>MOLECULE
tmp/1o26B03.pdb
 88 85 0 0 0
SMALL
GASTEIGER

@<TRIPOS>ATOM
      1  N         39.6270   38.9070  103.4720 N.3    79  ARG79      -0.1231
      2  CA        39.8100   38.1970  104.7360 C.3    79  ARG79       0.1694
      3  C         40.2070   39.2010  105.8330 C.2    79  ARG79       0.2592
      4  O         40.1860   38.8780  107.0210 O.2    79  ARG79      -0.2718
      5  CB        40.8810   37.1060  104.6070 C.3    79  ARG79       0.0321
      6  CG        40.4580   35.9230  103.7260 C.3    79  ARG79       0.0489
      7  CD        39.2140   35.2070  104.2840 C.3    79  ARG79       0.2205
      8  NE        39.4720   34.6950  105.6270 N.pl3  79  ARG79      -0.0865
      9  CZ        40.0420   33.5220  105.9000 C.cat  79  ARG79       0.5346
     10  NH1       40.3990   32.7020  104.9210 N.pl3  79  ARG79       0.1354
     11  NH2       40.3150   33.2010  107.1560 N.pl3  79  ARG79       0.1354
     12  N         40.5990   40.4160  105.4240 N.am   80  HIS80      -0.1962
     13  CA        40.9380   41.4660  106.3800 C.3    80  HIS80       0.1787
     14  C         39.6050   42.0670  106.8510 C.2    80  HIS80       0.2620
     15  O         39.0170   42.9430  106.2090 O.2    80  HIS80      -0.2715
     16  CB        41.8650   42.4920  105.6950 C.3    80  HIS80       0.0785
     17  CG        43.2270   41.9360  105.3900 C.ar   80  HIS80       0.0821
     18  ND1       44.3060   42.1210  106.2270 N.ar   80  HIS80      -0.2267
     19  CD2       43.6610   41.1260  104.3930 C.ar   80  HIS80       0.1154
     20  CE1       45.3470   41.4480  105.7620 C.ar   80  HIS80       0.1986
     21  NE2       44.9820   40.8340  104.6500 N.ar   80  HIS80      -0.2212
     22  N         39.1430   41.5640  107.9910 N.am   81  ARG81      -0.1963
     23  CA        37.8490   41.9400  108.5760 C.3    81  ARG81       0.1729
     24  C         37.7450   43.3410  109.1550 C.2    81  ARG81       0.2616
     25  O         36.6460   43.8920  109.2430 O.2    81  ARG81      -0.2715
     26  CB        37.4930   40.9360  109.6770 C.3    81  ARG81       0.0348
     27  CG        37.2930   39.5140  109.1690 C.3    81  ARG81       0.0492
     28  CD        37.4430   38.5240  110.3120 C.3    81  ARG81       0.2205
     29  NE        38.8360   38.5070  110.7980 N.pl3  81  ARG81      -0.0865
     30  CZ        39.2730   37.7030  111.7620 C.cat  81  ARG81       0.5346
     31  NH1       38.4380   36.8450  112.3610 N.pl3  81  ARG81       0.1354
     32  NH2       40.5510   37.7440  112.1220 N.pl3  81  ARG81       0.1354
     33  N         38.8700   43.9150  109.5780 N.am   82  ILE82      -0.1977
     34  CA        38.8160   45.2450  110.1810 C.3    82  ILE82       0.1596
     35  C         38.9310   46.2940  109.0840 C.2    82  ILE82       0.2287
     36  O         39.9630   46.9490  108.9090 O.2    82  ILE82      -0.2864
     37  CB        39.9290   45.4150  111.2420 C.3    82  ILE82       0.0276
     38  CG1       39.8700   44.2640  112.2620 C.3    82  ILE82       0.0022
     39  CG2       39.7170   46.7110  111.9910 C.3    82  ILE82       0.0022
     40  CD1       38.5260   44.0980  112.9350 C.3    82  ILE82       0.0001
     41  N         44.9180   49.1420  110.5800 N.3   167  SER167     -0.1217
     42  CA        44.5660   47.9380  109.8480 C.3   167  SER167      0.1889
     43  C         45.3300   47.8730  108.5220 C.2   167  SER167      0.2288
     44  O         45.6920   46.8050  108.0540 O.2   167  SER167     -0.2866
     45  CB        43.0490   47.9120  109.6040 C.3   167  SER167      0.2089
     46  OG        42.6930   46.7130  108.9550 O.3   167  SER167     -0.2183
     47  N         48.6270   46.4330  109.1340 N.3   170  ASN170     -0.1240
     48  CA        48.5510   44.9810  109.2950 C.3   170  ASN170      0.1653
     49  C         48.4840   44.3650  107.8950 C.2   170  ASN170      0.2266
     50  O         49.1400   43.3630  107.6020 O.2   170  ASN170     -0.2867
     51  CB        47.2970   44.5790  110.0910 C.3   170  ASN170      0.1155
     52  CG        47.2330   43.0840  110.3510 C.2   170  ASN170      0.2627
     53  OD1       48.1390   42.5170  110.9680 O.2   170  ASN170     -0.2716
     54  ND2       46.1560   42.4360  109.8910 N.am  170  ASN170     -0.0877
     55  N         51.2850   41.6940  106.1340 N.3   174  LEU174     -0.1231
     56  CA        50.9180   40.3950  105.5950 C.3   174  LEU174      0.1693
     57  C         50.9510   40.2260  104.0900 C.2   174  LEU174      0.2591
     58  O         51.2730   39.1430  103.6010 O.2   174  LEU174     -0.2718
     59  CB        49.5130   40.0140  106.0960 C.3   174  LEU174      0.0284
     60  CG        49.3660   39.8710  107.6110 C.3   174  LEU174      0.0019
     61  CD1       47.8850   39.7730  107.9630 C.3   174  LEU174      0.0001
     62  CD2       50.1290   38.6400  108.1060 C.3   174  LEU174      0.0001
     63  N         50.6230   41.2840  103.3550 N.am  175  ARG175     -0.1980
     64  CA        50.5440   41.2060  101.9060 C.3   175  ARG175      0.1597
     65  C         51.7330   41.7660  101.1300 C.2   175  ARG175      0.2287
     66  O         51.9500   41.3790   99.9840 O.2   175  ARG175     -0.2864
     67  CB        49.2480   41.8720  101.4380 C.3   175  ARG175      0.0334
     68  CG        47.9970   41.3060  102.1290 C.3   175  ARG175      0.0492
     69  CD        47.8480   39.7950  101.9240 C.3   175  ARG175      0.2205
     70  NE        46.6490   39.3000  102.6070 N.pl3 175  ARG175     -0.0865
     71  CZ        46.2160   38.0450  102.5280 C.cat 175  ARG175      0.5346
     72  NH1       46.8820   37.1620  101.7930 N.pl3 175  ARG175      0.1354
     73  NH2       45.1280   37.6700  103.2040 N.pl3 175  ARG175      0.1354
     74  N         55.8010   35.8590  101.0790 N.3   179  HIS179     -0.1226
     75  CA        55.0080   34.6540  101.3110 C.3   179  HIS179      0.1752
     76  C         53.5960   34.8060  100.7470 C.2   179  HIS179      0.2595
     77  O         52.9150   33.8170  100.5060 O.2   179  HIS179     -0.2718
     78  CB        54.9300   34.3270  102.8000 C.3   179  HIS179      0.0759
     79  CG        56.2650   34.0740  103.4270 C.ar  179  HIS179      0.0818
     80  ND1       57.0500   35.0840  103.9390 N.ar  179  HIS179     -0.2268
     81  CD2       56.9700   32.9290  103.5870 C.ar  179  HIS179      0.1154
     82  CE1       58.1840   34.5720  104.3860 C.ar  179  HIS179      0.1986
     83  NE2       58.1600   33.2670  104.1840 N.ar  179  HIS179     -0.2212
     84  N         53.1620   36.0470  100.5530 N.am  180  ALA180     -0.1980
     85  CA        51.8400   36.3030   99.9870 C.3   180  ALA180      0.1597
     86  C         51.8860   36.0100   98.4900 C.2   180  ALA180      0.2287
     87  O         52.9630   36.0020   97.8830 O.2   180  ALA180     -0.2864
     88  CB        51.4330   37.7650  100.2280 C.3   180  ALA180      0.0319
@<TRIPOS>BOND
     1    87    86    2
     2    86    85    1
     3    66    65    2
     4    85    88    1
     5    85    84    1
     6    77    76    2
     7    84    76   am
     8    76    75    1
     9    74    75    1
    10    65    64    1
    11    75    78    1
    12    67    64    1
    13    67    68    1
    14    72    71    1
    15    64    63    1
    16    69    68    1
    17    69    70    1
    18    71    70    2
    19    71    73    1
    20    78    79    1
    21    63    57   am
    22    79    81   ar
    23    79    80   ar
    24     1     2    1
    25    81    83   ar
    26    58    57    2
    27     6     7    1
    28     6     5    1
    29    80    82   ar
    30    57    56    1
    31    83    82   ar
    32     7     8    1
    33    19    21   ar
    34    19    17   ar
    35     5     2    1
    36    21    20   ar
    37     2     3    1
    38    10     9    1
    39    17    16    1
    40    17    18   ar
    41    12     3   am
    42    12    13    1
    43    56    59    1
    44    56    55    1
    45     8     9    2
    46    16    13    1
    47    20    18   ar
    48     3     4    2
    49     9    11    1
    50    59    60    1
    51    15    14    2
    52    13    14    1
    53    14    22   am
    54    50    49    2
    55    60    61    1
    56    60    62    1
    57    49    48    1
    58    22    23    1
    59    44    43    2
    60    43    42    1
    61    23    24    1
    62    23    26    1
    63    36    35    2
    64    46    45    1
    65    35    34    1
    66    47    48    1
    67    24    25    2
    68    24    33   am
    69    27    26    1
    70    27    28    1
    71    48    51    1
    72    33    34    1
    73    45    42    1
    74    42    41    1
    75    54    52   am
    76    51    52    1
    77    34    37    1
    78    28    29    1
    79    52    53    2
    80    29    30    2
    81    37    39    1
    82    37    38    1
    83    30    32    1
    84    30    31    1
    85    38    40    1
