@<TRIPOS>MOLECULE
tmp/1o26B01.pdb
 99 98 0 0 0
SMALL
GASTEIGER

@<TRIPOS>ATOM
      1  N         39.6680   40.3470  101.1440 N.3    78  PHE78      -0.1241
      2  CA        38.4780   40.4660  101.9750 C.3    78  PHE78       0.1605
      3  C         38.5510   39.6750  103.2810 C.2    78  PHE78       0.2264
      4  O         37.6390   39.7600  104.1030 O.2    78  PHE78      -0.2867
      5  CB        37.2240   40.0660  101.1790 C.3    78  PHE78       0.0534
      6  CG        36.6810   41.1560  100.2600 C.ar   78  PHE78      -0.0203
      7  CD1       37.4910   41.7760   99.3160 C.ar   78  PHE78      -0.0042
      8  CD2       35.3240   41.4830  100.2900 C.ar   78  PHE78      -0.0042
      9  CE1       36.9540   42.7040   98.3970 C.ar   78  PHE78      -0.0003
     10  CE2       34.7760   42.4030   99.3830 C.ar   78  PHE78      -0.0003
     11  CZ        35.5940   43.0130   98.4330 C.ar   78  PHE78      -0.0000
     12  N         39.1430   41.5640  107.9910 N.3    81  ARG81      -0.1231
     13  CA        37.8490   41.9400  108.5760 C.3    81  ARG81       0.1694
     14  C         37.7450   43.3410  109.1550 C.2    81  ARG81       0.2592
     15  O         36.6460   43.8920  109.2430 O.2    81  ARG81      -0.2718
     16  CB        37.4930   40.9360  109.6770 C.3    81  ARG81       0.0321
     17  CG        37.2930   39.5140  109.1690 C.3    81  ARG81       0.0489
     18  CD        37.4430   38.5240  110.3120 C.3    81  ARG81       0.2205
     19  NE        38.8360   38.5070  110.7980 N.pl3  81  ARG81      -0.0865
     20  CZ        39.2730   37.7030  111.7620 C.cat  81  ARG81       0.5346
     21  NH1       38.4380   36.8450  112.3610 N.pl3  81  ARG81       0.1354
     22  NH2       40.5510   37.7440  112.1220 N.pl3  81  ARG81       0.1354
     23  N         38.8700   43.9150  109.5780 N.am   82  ILE82      -0.1966
     24  CA        38.8160   45.2450  110.1810 C.3    82  ILE82       0.1727
     25  C         38.9310   46.2940  109.0840 C.2    82  ILE82       0.2616
     26  O         39.9630   46.9490  108.9090 O.2    82  ILE82      -0.2715
     27  CB        39.9290   45.4150  111.2420 C.3    82  ILE82       0.0290
     28  CG1       39.8700   44.2640  112.2620 C.3    82  ILE82       0.0022
     29  CG2       39.7170   46.7110  111.9910 C.3    82  ILE82       0.0023
     30  CD1       38.5260   44.0980  112.9350 C.3    82  ILE82       0.0001
     31  N         37.8340   46.4340  108.3480 N.am   83  ALA83      -0.1963
     32  CA        37.7340   47.3320  107.2090 C.3    83  ALA83       0.1728
     33  C         36.3070   47.2410  106.7070 C.2    83  ALA83       0.2617
     34  O         35.5310   46.4020  107.1690 O.2    83  ALA83      -0.2715
     35  CB        38.6820   46.8890  106.1070 C.3    83  ALA83       0.0334
     36  N         35.9770   48.0960  105.7500 N.am   84  SER84      -0.1936
     37  CA        34.6370   48.1140  105.1640 C.3    84  SER84       0.2055
     38  C         34.7560   47.8860  103.6590 C.2    84  SER84       0.2643
     39  O         35.6790   48.4070  103.0260 O.2    84  SER84      -0.2714
     40  CB        33.9820   49.4610  105.4540 C.3    84  SER84       0.2130
     41  OG        33.8190   49.6310  106.8510 O.3    84  SER84      -0.2179
     42  N         33.8190   47.1180  103.0870 N.am   85  TYR85      -0.1959
     43  CA        33.8430   46.8020  101.6630 C.3    85  TYR85       0.1771
     44  C         32.4870   46.9100  100.9920 C.2    85  TYR85       0.2620
     45  O         31.4570   46.6600  101.6180 O.2    85  TYR85      -0.2715
     46  CB        34.2720   45.3320  101.4250 C.3    85  TYR85       0.0574
     47  CG        35.5700   44.9050  102.0570 C.ar   85  TYR85      -0.0198
     48  CD1       35.6360   44.5440  103.4070 C.ar   85  TYR85      -0.0009
     49  CD2       36.7400   44.9050  101.3090 C.ar   85  TYR85      -0.0009
     50  CE1       36.8630   44.2050  104.0020 C.ar   85  TYR85       0.0417
     51  CE2       37.9570   44.5660  101.8820 C.ar   85  TYR85       0.0417
     52  CZ        38.0160   44.2310  103.2210 C.ar   85  TYR85       0.1957
     53  OH        39.2550   43.9910  103.7700 O.3    85  TYR85      -0.2866
     54  N         32.5020   47.3000   99.7160 N.am   86  ASN86      -0.1958
     55  CA        31.3060   47.2670   98.8780 C.3    86  ASN86       0.1819
     56  C         31.8400   46.8730   97.5190 C.2    86  ASN86       0.2621
     57  O         32.7470   47.5140   96.9800 O.2    86  ASN86      -0.2715
     58  CB        30.5450   48.5790   98.8850 C.3    86  ASN86       0.1195
     59  CG        29.5790   48.6350  100.0280 C.2    86  ASN86       0.2630
     60  OD1       28.5410   47.9430  100.0300 O.2    86  ASN86      -0.2716
     61  ND2       29.9180   49.4010  101.0340 N.am   86  ASN86      -0.0877
     62  N         31.2820   45.7810   97.0000 N.am   87  GLU87      -0.1977
     63  CA        31.7520   45.1600   95.7670 C.3    87  GLU87       0.1602
     64  C         30.7080   44.9230   94.6980 C.2    87  GLU87       0.2287
     65  O         29.5330   44.7340   95.0040 O.2    87  GLU87      -0.2864
     66  CB        32.3860   43.8000   96.1330 C.3    87  GLU87       0.0415
     67  CG        32.9090   43.0070   94.9360 C.3    87  GLU87       0.1163
     68  CD        33.5280   41.6610   95.2800 C.2    87  GLU87       0.3649
     69  OE1       33.4270   41.2140   96.4320 O.co2  87  GLU87      -0.2457
     70  OE2       34.1150   41.0320   94.3720 O.co2  87  GLU87      -0.2457
     71  N         28.4490   43.1060   92.0900 N.3    89  SER89      -0.1217
     72  CA        27.7310   41.8440   92.2720 C.3    89  SER89       0.1889
     73  C         27.4270   41.0610   90.9900 C.2    89  SER89       0.2288
     74  O         26.9280   41.6190   90.0250 O.2    89  SER89      -0.2866
     75  CB        26.4160   42.1170   93.0030 C.3    89  SER89       0.2089
     76  OG        25.5620   40.9850   92.9490 O.3    89  SER89      -0.2183
     77  N         25.3480   38.6390   91.0400 N.3    91  ARG91      -0.1231
     78  CA        23.9300   38.2940   91.1430 C.3    91  ARG91       0.1694
     79  C         23.1100   39.3770   90.4590 C.2    91  ARG91       0.2592
     80  O         22.0700   39.1050   89.8660 O.2    91  ARG91      -0.2718
     81  CB        23.4670   38.2380   92.6030 C.3    91  ARG91       0.0321
     82  CG        24.0890   37.1540   93.4590 C.3    91  ARG91       0.0489
     83  CD        23.3590   37.0680   94.7980 C.3    91  ARG91       0.2205
     84  NE        21.9620   36.6460   94.6420 N.pl3  91  ARG91      -0.0865
     85  CZ        20.9700   37.0100   95.4530 C.cat  91  ARG91       0.5346
     86  NH1       21.2030   37.8130   96.4850 N.pl3  91  ARG91       0.1354
     87  NH2       19.7400   36.5610   95.2400 N.pl3  91  ARG91       0.1354
     88  N         23.5940   40.6120   90.5310 N.am   92  TYR92      -0.1976
     89  CA        22.8490   41.7440   89.9960 C.3    92  TYR92       0.1639
     90  C         23.3470   42.3610   88.6990 C.2    92  TYR92       0.2290
     91  O         22.5800   43.0130   87.9880 O.2    92  TYR92      -0.2864
     92  CB        22.7680   42.8380   91.0650 C.3    92  TYR92       0.0560
     93  CG        22.2330   42.3540   92.3940 C.ar   92  TYR92      -0.0198
     94  CD1       22.9690   42.5210   93.5680 C.ar   92  TYR92      -0.0009
     95  CD2       20.9960   41.7150   92.4780 C.ar   92  TYR92      -0.0009
     96  CE1       22.4850   42.0620   94.7960 C.ar   92  TYR92       0.0417
     97  CE2       20.5040   41.2520   93.7000 C.ar   92  TYR92       0.0417
     98  CZ        21.2510   41.4290   94.8520 C.ar   92  TYR92       0.1957
     99  OH        20.7580   40.9830   96.0580 O.3    92  TYR92      -0.2866
@<TRIPOS>BOND
     1    91    90    2
     2    90    89    1
     3    80    79    2
     4    89    88    1
     5    89    92    1
     6    74    73    2
     7    79    88   am
     8    79    78    1
     9    73    72    1
    10    77    78    1
    11    92    93    1
    12    78    81    1
    13    71    72    1
    14    72    75    1
    15    93    95   ar
    16    93    94   ar
    17    95    97   ar
    18    81    82    1
    19    76    75    1
    20    82    83    1
    21    94    96   ar
    22    97    98   ar
    23    70    68   ar
    24    84    83    1
    25    84    85    2
    26    64    65    2
    27    64    63    1
    28    96    98   ar
    29    98    99    1
    30    67    68    1
    31    67    66    1
    32    87    85    1
    33    68    69   ar
    34    85    86    1
    35    63    66    1
    36    63    62    1
    37    57    56    2
    38    62    56   am
    39    56    55    1
    40     9    11   ar
    41     9     7   ar
    42    11    10   ar
    43    55    58    1
    44    55    54    1
    45    58    59    1
    46     7     6   ar
    47    10     8   ar
    48    54    44   am
    49    59    60    2
    50    59    61   am
    51     6     8   ar
    52     6     5    1
    53    44    45    2
    54    44    43    1
    55     1     2    1
    56     5     2    1
    57    49    51   ar
    58    49    47   ar
    59    46    43    1
    60    46    47    1
    61    43    42    1
    62    51    52   ar
    63     2     3    1
    64    47    48   ar
    65    39    38    2
    66    42    38   am
    67    52    53    1
    68    52    50   ar
    69     3     4    2
    70    48    50   ar
    71    38    37    1
    72    37    40    1
    73    37    36    1
    74    40    41    1
    75    36    33   am
    76    35    32    1
    77    33    34    2
    78    33    32    1
    79    32    31    1
    80    12    13    1
    81    31    25   am
    82    13    14    1
    83    13    16    1
    84    26    25    2
    85    25    24    1
    86    14    15    2
    87    14    23   am
    88    17    16    1
    89    17    18    1
    90    23    24    1
    91    24    27    1
    92    18    19    1
    93    19    20    2
    94    27    29    1
    95    27    28    1
    96    20    22    1
    97    20    21    1
    98    28    30    1
