@<TRIPOS>MOLECULE
tmp/1o26B00.pdb
 89 83 0 0 0
SMALL
GASTEIGER

@<TRIPOS>ATOM
      1  N         46.6540   63.4880  123.7050 N.3    30  VAL30      -0.1231
      2  CA        45.5070   63.6810  124.5860 C.3    30  VAL30       0.1692
      3  C         45.6970   62.9270  125.9040 C.2    30  VAL30       0.2592
      4  O         45.1190   63.2920  126.9220 O.2    30  VAL30      -0.2718
      5  CB        44.1820   63.2340  123.9040 C.3    30  VAL30       0.0266
      6  CG1       44.1000   61.7190  123.8490 C.3    30  VAL30       0.0020
      7  CG2       42.9990   63.8080  124.6450 C.3    30  VAL30       0.0020
      8  N         46.5230   61.8840  125.8850 N.am   31  SER31      -0.1952
      9  CA        46.7920   61.1020  127.0860 C.3    31  SER31       0.1924
     10  C         47.3310   61.9880  128.1980 C.2    31  SER31       0.2314
     11  O         47.0430   61.7720  129.3770 O.2    31  SER31      -0.2863
     12  CB        47.8090   60.0020  126.7840 C.3    31  SER31       0.2116
     13  OG        47.2460   59.0020  125.9520 O.3    31  SER31      -0.2180
     14  N         52.5320   51.6730  120.2820 N.3    54  HIS54      -0.1226
     15  CA        51.3630   52.4950  120.6150 C.3    54  HIS54       0.1752
     16  C         50.6260   52.6460  119.2900 C.2    54  HIS54       0.2596
     17  O         50.8120   53.6280  118.5700 O.2    54  HIS54      -0.2718
     18  CB        51.7940   53.8750  121.1210 C.3    54  HIS54       0.0759
     19  CG        52.4110   53.8610  122.4850 C.ar   54  HIS54       0.0818
     20  ND1       53.3450   52.9240  122.8730 N.ar   54  HIS54      -0.2268
     21  CD2       52.2520   54.6930  123.5410 C.ar   54  HIS54       0.1154
     22  CE1       53.7350   53.1790  124.1100 C.ar   54  HIS54       0.1986
     23  NE2       53.0870   54.2480  124.5380 N.ar   54  HIS54      -0.2212
     24  N         49.7710   51.6770  118.9870 N.am   55  GLU55      -0.1965
     25  CA        49.0650   51.6380  117.7160 C.3    55  GLU55       0.1733
     26  C         47.7240   52.3470  117.5920 C.2    55  GLU55       0.2617
     27  O         47.3610   52.7740  116.4990 O.2    55  GLU55      -0.2715
     28  CB        48.8690   50.1730  117.3020 C.3    55  GLU55       0.0429
     29  CG        50.1680   49.4120  117.0070 C.3    55  GLU55       0.1163
     30  CD        49.9600   47.9040  116.8680 C.2    55  GLU55       0.3649
     31  OE1       48.8550   47.4800  116.4650 O.co2  55  GLU55      -0.2457
     32  OE2       50.9110   47.1370  117.1470 O.co2  55  GLU55      -0.2457
     33  N         46.9890   52.4890  118.6880 N.am   56  THR56      -0.1951
     34  CA        45.6660   53.1060  118.5540 C.3    56  THR56       0.1897
     35  C         45.6040   54.5120  117.9610 C.2    56  THR56       0.2313
     36  O         44.6590   54.8370  117.2640 O.2    56  THR56      -0.2863
     37  CB        44.8750   53.0490  119.8740 C.3    56  THR56       0.1794
     38  OG1       45.6250   53.6550  120.9300 O.3    56  THR56      -0.2208
     39  CG2       44.5950   51.5820  120.2450 C.3    56  THR56       0.0378
     40  N         44.6000   54.7630  114.3130 N.3    59  GLU59      -0.1245
     41  CA        43.2650   54.3630  113.8750 C.3    59  GLU59       0.1567
     42  C         42.4500   55.5790  113.4370 C.2    59  GLU59       0.2260
     43  O         41.4110   55.4380  112.7730 O.2    59  GLU59      -0.2867
     44  CB        42.5340   53.6280  115.0000 C.3    59  GLU59       0.0388
     45  CG        43.1030   52.2520  115.3190 C.3    59  GLU59       0.1160
     46  CD        42.3370   51.5390  116.4150 C.2    59  GLU59       0.3649
     47  OE1       41.1840   51.9280  116.6930 O.co2  59  GLU59      -0.2457
     48  OE2       42.8820   50.5830  117.0030 O.co2  59  GLU59      -0.2457
     49  N         38.8700   43.9150  109.5780 N.3    82  ILE82      -0.1245
     50  CA        38.8160   45.2450  110.1810 C.3    82  ILE82       0.1561
     51  C         38.9310   46.2940  109.0840 C.2    82  ILE82       0.2260
     52  O         39.9630   46.9490  108.9090 O.2    82  ILE82      -0.2867
     53  CB        39.9290   45.4150  111.2420 C.3    82  ILE82       0.0252
     54  CG1       39.8700   44.2640  112.2620 C.3    82  ILE82       0.0019
     55  CG2       39.7170   46.7110  111.9910 C.3    82  ILE82       0.0019
     56  CD1       38.5260   44.0980  112.9350 C.3    82  ILE82       0.0001
     57  N         41.4140   51.9460  108.2120 N.3   164  ASN164     -0.1240
     58  CA        42.2320   52.9180  108.9420 C.3   164  ASN164      0.1653
     59  C         43.6960   52.5420  108.8540 C.2   164  ASN164      0.2266
     60  O         44.0370   51.4450  108.4170 O.2   164  ASN164     -0.2867
     61  CB        41.7530   53.1260  110.3980 C.3   164  ASN164      0.1155
     62  CG        41.9300   51.9200  111.2810 C.2   164  ASN164      0.2627
     63  OD1       42.9950   51.3020  111.3240 O.2   164  ASN164     -0.2716
     64  ND2       40.8820   51.6030  112.0450 N.am  164  ASN164     -0.0877
     65  N         45.9770   51.7130  111.0280 N.3   166  ARG166     -0.1231
     66  CA        46.4490   50.5820  111.8110 C.3   166  ARG166      0.1694
     67  C         46.1490   49.2820  111.0680 C.2   166  ARG166      0.2592
     68  O         47.0070   48.4140  110.9270 O.2   166  ARG166     -0.2718
     69  CB        45.7800   50.5760  113.1880 C.3   166  ARG166      0.0321
     70  CG        46.2450   49.4390  114.0820 C.3   166  ARG166      0.0489
     71  CD        45.6450   49.5540  115.4750 C.3   166  ARG166      0.2205
     72  NE        46.2470   48.5900  116.3960 N.pl3 166  ARG166     -0.0865
     73  CZ        45.7700   48.3100  117.6030 C.cat 166  ARG166      0.5346
     74  NH1       44.6620   48.9030  118.0470 N.pl3 166  ARG166      0.1354
     75  NH2       46.4290   47.4710  118.3910 N.pl3 166  ARG166      0.1354
     76  N         44.9180   49.1420  110.5800 N.am  167  SER167     -0.1952
     77  CA        44.5660   47.9380  109.8480 C.3   167  SER167      0.1924
     78  C         45.3300   47.8730  108.5220 C.2   167  SER167      0.2314
     79  O         45.6920   46.8050  108.0540 O.2   167  SER167     -0.2863
     80  CB        43.0490   47.9120  109.6040 C.3   167  SER167      0.2116
     81  OG        42.6930   46.7130  108.9550 O.3   167  SER167     -0.2180
     82  N         48.6270   46.4330  109.1340 N.3   170  ASN170     -0.1240
     83  CA        48.5510   44.9810  109.2950 C.3   170  ASN170      0.1653
     84  C         48.4840   44.3650  107.8950 C.2   170  ASN170      0.2266
     85  O         49.1400   43.3630  107.6020 O.2   170  ASN170     -0.2867
     86  CB        47.2970   44.5790  110.0910 C.3   170  ASN170      0.1155
     87  CG        47.2330   43.0840  110.3510 C.2   170  ASN170      0.2627
     88  OD1       48.1390   42.5170  110.9680 O.2   170  ASN170     -0.2716
     89  ND2       46.1560   42.4360  109.8910 N.am  170  ASN170     -0.0877
@<TRIPOS>BOND
     1    85    84    2
     2    84    83    1
     3    79    78    2
     4    57    58    1
     5    60    59    2
     6    78    77    1
     7    59    58    1
     8    52    51    2
     9    58    61    1
    10    81    80    1
    11    51    50    1
    12    82    83    1
    13    83    86    1
    14    49    50    1
    15    80    77    1
    16    77    76    1
    17    89    87   am
    18    86    87    1
    19    50    53    1
    20    87    88    2
    21    61    62    1
    22    76    67   am
    23    68    67    2
    24    65    66    1
    25    67    66    1
    26    53    55    1
    27    53    54    1
    28    62    63    2
    29    62    64   am
    30    66    69    1
    31    54    56    1
    32    43    42    2
    33    69    70    1
    34    42    41    1
    35    41    40    1
    36    41    44    1
    37    70    71    1
    38    44    45    1
    39    45    46    1
    40    71    72    1
    41    72    73    2
    42    46    47   ar
    43    46    48   ar
    44    31    30   ar
    45    27    26    2
    46    30    29    1
    47    30    32   ar
    48    29    28    1
    49    36    35    2
    50    28    25    1
    51    26    25    1
    52    26    33   am
    53    73    74    1
    54    73    75    1
    55    25    24    1
    56    35    34    1
    57    34    33    1
    58    34    37    1
    59    17    16    2
    60    24    16   am
    61    16    15    1
    62    37    39    1
    63    37    38    1
    64    14    15    1
    65    15    18    1
    66    18    19    1
    67    19    20   ar
    68    19    21   ar
    69    20    22   ar
    70    21    23   ar
    71     1     2    1
    72     6     5    1
    73     5     2    1
    74     5     7    1
    75    22    23   ar
    76     2     3    1
    77     8     3   am
    78     8     9    1
    79     3     4    2
    80    13    12    1
    81    12     9    1
    82     9    10    1
    83    10    11    2
