@<TRIPOS>MOLECULE
tmp/1o26B06.pdb
 82 80 0 0 0
SMALL
GASTEIGER

@<TRIPOS>ATOM
      1  N         46.1020   62.5300  118.7970 N.3    27  ALA27      -0.1231
      2  CA        45.4190   61.4440  119.4990 C.3    27  ALA27       0.1694
      3  C         46.3080   60.8400  120.5800 C.2    27  ALA27       0.2591
      4  O         45.8120   60.3620  121.5960 O.2    27  ALA27      -0.2718
      5  CB        44.9890   60.3550  118.5060 C.3    27  ALA27       0.0304
      6  N         47.6220   60.8430  120.3610 N.am   28  ALA28      -0.1980
      7  CA        48.5400   60.3000  121.3510 C.3    28  ALA28       0.1597
      8  C         48.7110   61.2930  122.5020 C.2    28  ALA28       0.2287
      9  O         48.6990   60.9130  123.6710 O.2    28  ALA28      -0.2864
     10  CB        49.8970   59.9970  120.7070 C.3    28  ALA28       0.0319
     11  N         46.5230   61.8840  125.8850 N.3    31  SER31      -0.1217
     12  CA        46.7920   61.1020  127.0860 C.3    31  SER31       0.1889
     13  C         47.3310   61.9880  128.1980 C.2    31  SER31       0.2288
     14  O         47.0430   61.7720  129.3770 O.2    31  SER31      -0.2866
     15  CB        47.8090   60.0020  126.7840 C.3    31  SER31       0.2089
     16  OG        47.2460   59.0020  125.9520 O.3    31  SER31      -0.2183
     17  N         55.9130   56.3110  119.0930 N.3    49  LEU49      -0.1245
     18  CA        54.6950   55.5000  119.1010 C.3    49  LEU49       0.1561
     19  C         54.9090   54.1860  118.3600 C.2    49  LEU49       0.2260
     20  O         54.5410   53.1160  118.8420 O.2    49  LEU49      -0.2867
     21  CB        53.5370   56.2620  118.4410 C.3    49  LEU49       0.0270
     22  CG        53.0190   57.5290  119.1280 C.3    49  LEU49       0.0019
     23  CD1       51.9900   58.1940  118.2290 C.3    49  LEU49       0.0001
     24  CD2       52.4100   57.1980  120.4820 C.3    49  LEU49       0.0001
     25  N         57.3700   51.6840  120.1360 N.3    52  HIS52      -0.1226
     26  CA        56.8890   51.1770  121.4140 C.3    52  HIS52       0.1752
     27  C         55.5450   50.4520  121.3310 C.2    52  HIS52       0.2597
     28  O         54.9910   50.0320  122.3470 O.2    52  HIS52      -0.2718
     29  CB        56.8230   52.3180  122.4220 C.3    52  HIS52       0.0759
     30  CG        58.1710   52.8230  122.8330 C.ar   52  HIS52       0.0818
     31  ND1       59.0210   52.1010  123.6450 N.ar   52  HIS52      -0.2268
     32  CD2       58.8290   53.9630  122.5190 C.ar   52  HIS52       0.1154
     33  CE1       60.1440   52.7770  123.8130 C.ar   52  HIS52       0.1986
     34  NE2       60.0530   53.9100  123.1400 N.ar   52  HIS52      -0.2212
     35  N         55.0280   50.3060  120.1160 N.am   53  GLY53      -0.1942
     36  CA        53.7690   49.6050  119.9330 C.3    53  GLY53       0.2014
     37  C         52.5070   50.3430  120.3450 C.2    53  GLY53       0.2639
     38  O         51.5230   49.7060  120.7260 O.2    53  GLY53      -0.2714
     39  N         52.5320   51.6730  120.2820 N.am   54  HIS54      -0.1959
     40  CA        51.3630   52.4950  120.6150 C.3    54  HIS54       0.1787
     41  C         50.6260   52.6460  119.2900 C.2    54  HIS54       0.2620
     42  O         50.8120   53.6280  118.5700 O.2    54  HIS54      -0.2715
     43  CB        51.7940   53.8750  121.1210 C.3    54  HIS54       0.0785
     44  CG        52.4110   53.8610  122.4850 C.ar   54  HIS54       0.0821
     45  ND1       53.3450   52.9240  122.8730 N.ar   54  HIS54      -0.2267
     46  CD2       52.2520   54.6930  123.5410 C.ar   54  HIS54       0.1154
     47  CE1       53.7350   53.1790  124.1100 C.ar   54  HIS54       0.1986
     48  NE2       53.0870   54.2480  124.5380 N.ar   54  HIS54      -0.2212
     49  N         49.7710   51.6770  118.9870 N.am   55  GLU55      -0.1963
     50  CA        49.0650   51.6380  117.7160 C.3    55  GLU55       0.1733
     51  C         47.7240   52.3470  117.5920 C.2    55  GLU55       0.2617
     52  O         47.3610   52.7740  116.4990 O.2    55  GLU55      -0.2715
     53  CB        48.8690   50.1730  117.3020 C.3    55  GLU55       0.0429
     54  CG        50.1680   49.4120  117.0070 C.3    55  GLU55       0.1163
     55  CD        49.9600   47.9040  116.8680 C.2    55  GLU55       0.3649
     56  OE1       48.8550   47.4800  116.4650 O.co2  55  GLU55      -0.2457
     57  OE2       50.9110   47.1370  117.1470 O.co2  55  GLU55      -0.2457
     58  N         46.9890   52.4890  118.6880 N.am   56  THR56      -0.1937
     59  CA        45.6660   53.1060  118.5540 C.3    56  THR56       0.2013
     60  C         45.6040   54.5120  117.9610 C.2    56  THR56       0.2484
     61  O         44.6590   54.8370  117.2640 O.2    56  THR56      -0.2729
     62  CB        44.8750   53.0490  119.8740 C.3    56  THR56       0.1807
     63  OG1       45.6250   53.6550  120.9300 O.3    56  THR56      -0.2208
     64  CG2       44.5950   51.5820  120.2450 C.3    56  THR56       0.0379
     65  N         46.6150   55.3640  118.2040 N.am   57  PRO57      -0.2726
     66  CA        46.5200   56.7050  117.6100 C.3    57  PRO57       0.1402
     67  C         46.3710   56.7070  116.0810 C.2    57  PRO57       0.2269
     68  O         45.7870   57.6320  115.4970 O.2    57  PRO57      -0.2865
     69  CB        47.8400   57.3650  118.0450 C.3    57  PRO57       0.0296
     70  CG        48.0730   56.7530  119.3810 C.3    57  PRO57       0.0237
     71  CD        47.7660   55.2780  119.1210 C.3    57  PRO57       0.0939
     72  N         45.9770   51.7130  111.0280 N.3   166  ARG166     -0.1245
     73  CA        46.4490   50.5820  111.8110 C.3   166  ARG166      0.1563
     74  C         46.1490   49.2820  111.0680 C.2   166  ARG166      0.2260
     75  O         47.0070   48.4140  110.9270 O.2   166  ARG166     -0.2867
     76  CB        45.7800   50.5760  113.1880 C.3   166  ARG166      0.0307
     77  CG        46.2450   49.4390  114.0820 C.3   166  ARG166      0.0489
     78  CD        45.6450   49.5540  115.4750 C.3   166  ARG166      0.2205
     79  NE        46.2470   48.5900  116.3960 N.pl3 166  ARG166     -0.0865
     80  CZ        45.7700   48.3100  117.6030 C.cat 166  ARG166      0.5346
     81  NH1       44.6620   48.9030  118.0470 N.pl3 166  ARG166      0.1354
     82  NH2       46.4290   47.4710  118.3910 N.pl3 166  ARG166      0.1354
@<TRIPOS>BOND
     1    75    74    2
     2    72    73    1
     3    74    73    1
     4    73    76    1
     5    76    77    1
     6    77    78    1
     7    78    79    1
     8    68    67    2
     9    67    66    1
    10    79    80    2
    11    56    55   ar
    12    52    51    2
    13    55    54    1
    14    55    57   ar
    15    54    53    1
    16    61    60    2
    17    53    50    1
    18    51    50    1
    19    51    58   am
    20    80    81    1
    21    80    82    1
    22    66    69    1
    23    66    65    1
    24    50    49    1
    25    60    65   am
    26    60    59    1
    27    69    70    1
    28    65    71    1
    29    23    22    1
    30    19    20    2
    31    19    18    1
    32    21    18    1
    33    21    22    1
    34     5     2    1
    35    59    58    1
    36    59    62    1
    37    42    41    2
    38     1     2    1
    39    49    41   am
    40    17    18    1
    41    71    70    1
    42    22    24    1
    43    41    40    1
    44     2     3    1
    45    62    64    1
    46    62    63    1
    47    36    35    1
    48    36    37    1
    49    35    27   am
    50    25    26    1
    51    39    37   am
    52    39    40    1
    53    37    38    2
    54     6     3   am
    55     6     7    1
    56     3     4    2
    57    40    43    1
    58    10     7    1
    59    43    44    1
    60    27    26    1
    61    27    28    2
    62     7     8    1
    63    26    29    1
    64    29    30    1
    65    44    45   ar
    66    44    46   ar
    67     8     9    2
    68    32    30   ar
    69    32    34   ar
    70    30    31   ar
    71    45    47   ar
    72    34    33   ar
    73    46    48   ar
    74    31    33   ar
    75    47    48   ar
    76    11    12    1
    77    16    15    1
    78    15    12    1
    79    12    13    1
    80    13    14    2
