@<TRIPOS>MOLECULE
tmp/1o2hA00.pdb
 167 169 0 0 0
SMALL
GASTEIGER

@<TRIPOS>ATOM
      1  N         51.1200    3.7320   36.6800 N.3    24  PHE24      -0.1227
      2  CA        49.8200    3.0800   36.4890 C.3    24  PHE24       0.1736
      3  C         49.3240    3.4240   35.0770 C.2    24  PHE24       0.2595
      4  O         48.5740    2.6400   34.5340 O.2    24  PHE24      -0.2718
      5  CB        48.8490    3.5180   37.5930 C.3    24  PHE24       0.0547
      6  CG        48.4960    4.9450   37.6750 C.ar   24  PHE24      -0.0202
      7  CD1       49.3190    5.8090   38.3610 C.ar   24  PHE24      -0.0042
      8  CD2       47.3690    5.4110   37.0550 C.ar   24  PHE24      -0.0042
      9  CE1       48.9910    7.1280   38.4110 C.ar   24  PHE24      -0.0003
     10  CE2       47.0560    6.7680   37.1170 C.ar   24  PHE24      -0.0003
     11  CZ        47.8650    7.6180   37.7950 C.ar   24  PHE24      -0.0000
     12  N         49.6990    4.5140   34.4560 N.am   25  CYS25      -0.1970
     13  CA        49.1940    4.8090   33.0680 C.3    25  CYS25       0.1712
     14  C         50.2340    5.6630   32.3160 C.2    25  CYS25       0.2296
     15  O         51.2100    6.1180   32.8960 O.2    25  CYS25      -0.2864
     16  CB        47.8390    5.6090   33.1620 C.3    25  CYS25       0.0983
     17  SG        46.2530    4.8260   33.4930 S.3    25  CYS25      -0.0798
     18  N         39.8750    7.3220   32.2310 N.3    40  HIS40      -0.1226
     19  CA        39.8760    6.1670   33.1870 C.3    40  HIS40       0.1752
     20  C         41.2180    6.0900   33.9640 C.2    40  HIS40       0.2596
     21  O         41.3530    5.2580   34.8330 O.2    40  HIS40      -0.2718
     22  CB        39.5650    4.7910   32.4140 C.3    40  HIS40       0.0759
     23  CG        40.6460    3.9130   31.7750 C.ar   40  HIS40       0.0818
     24  ND1       40.8640    3.7520   30.4980 N.ar   40  HIS40      -0.2268
     25  CD2       41.5470    3.1240   32.4360 C.ar   40  HIS40       0.1154
     26  CE1       41.8470    2.9080   30.3580 C.ar   40  HIS40       0.1986
     27  NE2       42.2750    2.5110   31.5310 N.ar   40  HIS40      -0.2212
     28  N         42.2010    6.9200   33.6980 N.am   41  CYS41      -0.1956
     29  CA        43.4860    6.8590   34.4470 C.3    41  CYS41       0.1843
     30  C         43.4470    7.8710   35.5790 C.2    41  CYS41       0.2625
     31  O         44.3550    8.0130   36.3640 O.2    41  CYS41      -0.2714
     32  CB        44.6270    7.2160   33.5500 C.3    41  CYS41       0.0997
     33  SG        45.0110    6.0160   32.2930 S.3    41  CYS41      -0.0797
     34  N         42.3700    8.5880   35.6790 N.am   42  TYR42      -0.1960
     35  CA        42.2180    9.6140   36.7420 C.3    42  TYR42       0.1771
     36  C         42.2950    9.1050   38.1650 C.2    42  TYR42       0.2619
     37  O         41.7900    8.0370   38.4300 O.2    42  TYR42      -0.2715
     38  CB        40.8370   10.3390   36.5680 C.3    42  TYR42       0.0574
     39  CG        40.6130   11.2600   37.7640 C.ar   42  TYR42      -0.0198
     40  CD1       40.0340   10.7740   38.9140 C.ar   42  TYR42      -0.0009
     41  CD2       41.0540   12.5390   37.7100 C.ar   42  TYR42      -0.0009
     42  CE1       39.9120   11.5820   40.0090 C.ar   42  TYR42       0.0417
     43  CE2       40.9340   13.3450   38.8050 C.ar   42  TYR42       0.0417
     44  CZ        40.3680   12.8710   39.9510 C.ar   42  TYR42       0.1957
     45  OH        40.2850   13.7070   41.0360 O.3    42  TYR42      -0.2866
     46  N         42.9070    9.8840   39.0190 N.am   43  LYS43      -0.1977
     47  CA        43.0860    9.6190   40.4620 C.3    43  LYS43       0.1596
     48  C         43.7030   10.9060   40.9780 C.2    43  LYS43       0.2287
     49  O         44.0350   11.8070   40.2170 O.2    43  LYS43      -0.2864
     50  CB        44.0430    8.4270   40.7380 C.3    43  LYS43       0.0298
     51  CG        45.4360    8.6350   40.2920 C.3    43  LYS43       0.0038
     52  CD        46.2990    7.4860   40.8770 C.3    43  LYS43       0.0206
     53  CE        45.8390    6.1130   40.3210 C.3    43  LYS43       0.1093
     54  NZ        46.7360    5.0330   40.8320 N.3    43  LYS43      -0.1314
     55  N         49.9920   -6.1760   20.7390 N.3   171  ASP171     -0.1225
     56  CA        48.8390   -5.3010   21.1210 C.3   171  ASP171      0.1805
     57  C         49.2180   -4.3690   22.2800 C.2   171  ASP171      0.2598
     58  O         50.3020   -4.5200   22.8230 O.2   171  ASP171     -0.2718
     59  CB        47.7180   -6.2080   21.5810 C.3   171  ASP171      0.1424
     60  CG        46.3840   -5.5150   21.8140 C.2   171  ASP171      0.3668
     61  OD1       45.5190   -6.0950   22.4520 O.co2 171  ASP171     -0.2456
     62  OD2       46.1340   -4.4010   21.3790 O.co2 171  ASP171     -0.2456
     63  N         48.4010   -3.4240   22.6670 N.am  172  SER172     -0.1938
     64  CA        48.8050   -2.5960   23.8080 C.3   172  SER172      0.2055
     65  C         48.1580   -3.3870   24.9540 C.2   172  SER172      0.2643
     66  O         47.4260   -4.3360   24.7190 O.2   172  SER172     -0.2714
     67  CB        48.2400   -1.1880   23.6560 C.3   172  SER172      0.2130
     68  OG        46.8470   -1.2120   23.3750 O.3   172  SER172     -0.2179
     69  N         48.3830   -3.0440   26.1970 N.am  173  CYS173     -0.1953
     70  CA        47.7780   -3.7990   27.3120 C.3   173  CYS173      0.1843
     71  C         47.6920   -2.8650   28.5290 C.2   173  CYS173      0.2625
     72  O         48.0300   -1.6890   28.4490 O.2   173  CYS173     -0.2714
     73  CB        48.6630   -4.9980   27.6320 C.3   173  CYS173      0.0997
     74  SG        47.9150   -6.2950   28.6430 S.3   173  CYS173     -0.0797
     75  N         47.2600   -3.4050   29.6330 N.am  174  GLN174     -0.1963
     76  CA        47.1170   -2.6340   30.9060 C.3   174  GLN174      0.1733
     77  C         48.4590   -1.9860   31.2270 C.2   174  GLN174      0.2616
     78  O         49.5160   -2.5700   31.0310 O.2   174  GLN174     -0.2715
     79  CB        46.6960   -3.6300   31.9440 C.3   174  GLN174      0.0408
     80  CG        46.6340   -3.0130   33.3190 C.3   174  GLN174      0.0908
     81  CD        46.0570   -4.0640   34.2650 C.2   174  GLN174      0.2608
     82  OE1       46.3140   -5.2370   34.1160 O.2   174  GLN174     -0.2717
     83  NE2       45.2880   -3.7290   35.2400 N.am  174  GLN174     -0.0878
     84  N         48.4290   -0.7870   31.7190 N.am  175  GLY175     -0.1955
     85  CA        49.6870   -0.0430   32.0610 C.3   175  GLY175      0.1869
     86  C         50.0220    0.9380   30.9290 C.2   175  GLY175      0.2309
     87  O         50.6840    1.9550   31.0880 O.2   175  GLY175     -0.2863
     88  N         47.5600    2.2240   29.0780 N.3   177  SER177     -0.1217
     89  CA        46.3540    3.1260   29.0940 C.3   177  SER177      0.1889
     90  C         46.7140    4.5890   29.2510 C.2   177  SER177      0.2288
     91  O         47.5510    4.9220   30.0600 O.2   177  SER177     -0.2866
     92  CB        45.4270    2.8530   30.2660 C.3   177  SER177      0.2089
     93  OG        44.7740    1.5890   30.0740 O.3   177  SER177     -0.2183
     94  N         45.6540    5.1800   24.2300 N.3   191  VAL191     -0.1231
     95  CA        45.3810    3.7640   24.5730 C.3   191  VAL191      0.1692
     96  C         44.1700    3.7560   25.5060 C.2   191  VAL191      0.2593
     97  O         44.2030    4.3940   26.5530 O.2   191  VAL191     -0.2718
     98  CB        46.6360    3.1720   25.2530 C.3   191  VAL191      0.0266
     99  CG1       46.3600    1.6610   25.5260 C.3   191  VAL191      0.0020
    100  CG2       47.8890    3.3930   24.3650 C.3   191  VAL191      0.0020
    101  N         43.1330    3.0470   25.1620 N.am  192  SER192     -0.1938
    102  CA        41.9430    3.0180   26.0220 C.3   192  SER192      0.2055
    103  C         41.5590    1.6230   26.4970 C.2   192  SER192      0.2643
    104  O         41.6720    1.3580   27.6910 O.2   192  SER192     -0.2714
    105  CB        40.8110    3.7290   25.1960 C.3   192  SER192      0.2130
    106  OG        39.6520    3.9300   26.0100 O.3   192  SER192     -0.2179
    107  N         41.1120    0.7050   25.6770 N.am  193  TRP193     -0.1959
    108  CA        40.7200   -0.6490   26.1660 C.3   193  TRP193      0.1771
    109  C         40.8190   -1.6520   25.0610 C.2   193  TRP193      0.2620
    110  O         41.2530   -1.3290   23.9710 O.2   193  TRP193     -0.2715
    111  CB        39.2870   -0.6160   26.6650 C.3   193  TRP193      0.0590
    112  CG        38.1910   -0.2030   25.6440 C.ar  193  TRP193      0.0006
    113  CD1       37.8350    1.0940   25.2770 C.ar  193  TRP193      0.0946
    114  CD2       37.3640   -1.0370   24.9390 C.ar  193  TRP193      0.0152
    115  NE1       36.8450    1.0200   24.4030 N.ar  193  TRP193     -0.2442
    116  CE2       36.5240   -0.2310   24.1630 C.ar  193  TRP193      0.0810
    117  CE3       37.2640   -2.4180   24.8800 C.ar  193  TRP193      0.0012
    118  CZ2       35.5920   -0.8190   23.3330 C.ar  193  TRP193      0.0191
    119  CZ3       36.3240   -3.0160   24.0490 C.ar  193  TRP193      0.0001
    120  CH2       35.4900   -2.2150   23.2770 C.ar  193  TRP193      0.0015
    121  N         40.4310   -2.8580   25.3460 N.am  194  GLY194     -0.1940
    122  CA        40.4360   -4.0090   24.3900 C.3   194  GLY194      0.2014
    123  C         40.0100   -5.2160   25.2380 C.2   194  GLY194      0.2640
    124  O         39.8150   -5.0230   26.4170 O.2   194  GLY194     -0.2714
    125  N         39.8550   -6.4080   24.7330 N.am  195  SER195     -0.1935
    126  CA        39.4460   -7.6100   25.5610 C.3   195  SER195      0.2055
    127  C         40.7440   -8.3870   25.7240 C.2   195  SER195      0.2644
    128  O         41.2770   -8.8790   24.7330 O.2   195  SER195     -0.2714
    129  CB        38.4670   -8.5150   24.8260 C.3   195  SER195      0.2130
    130  OG        37.2930   -7.7350   24.6520 O.3   195  SER195     -0.2179
    131  N         41.2430   -8.4970   26.9260 N.am  196  GLY196     -0.1939
    132  CA        42.5210   -9.2320   27.1390 C.3   196  GLY196      0.2014
    133  C         43.5660   -8.4100   26.4020 C.2   196  GLY196      0.2639
    134  O         43.3180   -7.2420   26.0850 O.2   196  GLY196     -0.2714
    135  N         44.6940   -9.0100   26.1510 N.am  197  CYS197     -0.1967
    136  CA        45.7820   -8.3390   25.4340 C.3   197  CYS197      0.1712
    137  C         46.3060   -9.3330   24.4060 C.2   197  CYS197      0.2296
    138  O         46.4560  -10.5130   24.6690 O.2   197  CYS197     -0.2864
    139  CB        46.8430   -7.9370   26.4390 C.3   197  CYS197      0.0983
    140  SG        46.2200   -6.7630   27.6670 S.3   197  CYS197     -0.0798
    141  N         40.7170   -9.5900   18.6660 N.3   202  LYS202     -0.1231
    142  CA        40.2960   -8.6030   19.7100 C.3   202  LYS202      0.1678
    143  C         41.3580   -7.4870   19.6650 C.2   202  LYS202      0.2434
    144  O         42.2210   -7.4330   20.5390 O.2   202  LYS202     -0.2733
    145  CB        40.2800   -9.2640   21.1110 C.3   202  LYS202      0.0284
    146  CG        39.2120  -10.3910   21.2170 C.3   202  LYS202      0.0035
    147  CD        37.7750   -9.8140   21.0130 C.3   202  LYS202      0.0206
    148  CE        36.7270  -10.9370   21.0680 C.3   202  LYS202      0.1093
    149  NZ        35.3750  -10.3550   20.8340 N.3   202  LYS202     -0.1314
    150  N         41.3500   -6.6030   18.6860 N.am  203  PRO203     -0.2718
    151  CA        42.3640   -5.5250   18.5930 C.3   203  PRO203      0.1535
    152  C         42.1920   -4.4910   19.7220 C.2   203  PRO203      0.2599
    153  O         41.2040   -4.5120   20.4380 O.2   203  PRO203     -0.2715
    154  CB        42.1420   -4.9610   17.1810 C.3   203  PRO203      0.0310
    155  CG        40.6010   -5.1330   17.0150 C.3   203  PRO203      0.0237
    156  CD        40.3700   -6.5590   17.5760 C.3   203  PRO203      0.0939
    157  N         43.1250   -3.5880   19.8870 N.am  204  GLY204     -0.1941
    158  CA        42.9830   -2.5790   20.9560 C.3   204  GLY204      0.2014
    159  C         42.0240   -1.5200   20.4470 C.2   204  GLY204      0.2638
    160  O         41.8470   -1.3650   19.2480 O.2   204  GLY204     -0.2714
    161  N         41.4090   -0.7930   21.3250 N.am  205  VAL205     -0.1977
    162  CA        40.4530    0.2870   20.9540 C.3   205  VAL205      0.1596
    163  C         41.1340    1.5120   21.5550 C.2   205  VAL205      0.2287
    164  O         41.6150    1.4820   22.6900 O.2   205  VAL205     -0.2864
    165  CB        39.1180   -0.0040   21.5960 C.3   205  VAL205      0.0276
    166  CG1       38.0720    1.0330   21.1560 C.3   205  VAL205      0.0022
    167  CG2       38.6530   -1.3820   21.1500 C.3   205  VAL205      0.0022
@<TRIPOS>BOND
     1   155   154    1
     2   155   156    1
     3   154   151    1
     4   156   150    1
     5   151   150    1
     6   151   152    1
     7   141   142    1
     8   150   143   am
     9   160   159    2
    10   143   142    1
    11   143   144    2
    12   142   145    1
    13   152   157   am
    14   152   153    2
    15   157   158    1
    16   159   158    1
    17   159   161   am
    18    55    56    1
    19   149   148    1
    20   162   161    1
    21   162   163    1
    22   162   165    1
    23   147   148    1
    24   147   146    1
    25   145   146    1
    26    56    59    1
    27    56    57    1
    28   167   165    1
    29   166   165    1
    30    62    60   ar
    31   163   164    2
    32    59    60    1
    33    60    61   ar
    34    57    63   am
    35    57    58    2
    36    63    64    1
    37   120   118   ar
    38   120   119   ar
    39   118   116   ar
    40    68    67    1
    41    67    64    1
    42    64    65    1
    43   110   109    2
    44   119   117   ar
    45   116   115   ar
    46   116   114   ar
    47    94    95    1
    48   100    98    1
    49   122   123    1
    50   122   121    1
    51   115   113   ar
    52   137   138    2
    53   137   136    1
    54    95    98    1
    55    95    96    1
    56   130   129    1
    57    66    65    2
    58   125   123   am
    59   125   126    1
    60   128   127    2
    61   129   126    1
    62   117   114   ar
    63   114   112   ar
    64    65    69   am
    65   109   121   am
    66   109   108    1
    67   101    96   am
    68   101   102    1
    69   105   106    1
    70   105   102    1
    71   123   124    2
    72    98    99    1
    73   113   112   ar
    74   136   135    1
    75   136   139    1
    76    96    97    2
    77   126   127    1
    78   112   111    1
    79   107   108    1
    80   107   103   am
    81   127   131   am
    82   102   103    1
    83   134   133    2
    84   135   133   am
    85   108   111    1
    86    69    70    1
    87   133   132    1
    88   139   140    1
    89   103   104    2
    90   131   132    1
    91    70    73    1
    92    70    71    1
    93    73    74    1
    94   140    74    1
    95    72    71    2
    96    71    75   am
    97    88    89    1
    98    89    90    1
    99    89    92    1
   100    90    91    2
   101    75    76    1
   102    93    92    1
   103    26    24   ar
   104    26    27   ar
   105    24    23   ar
   106    76    77    1
   107    76    79    1
   108    86    87    2
   109    86    85    1
   110    78    77    2
   111    77    84   am
   112    27    25   ar
   113    84    85    1
   114    23    22    1
   115    23    25   ar
   116    79    80    1
   117    18    19    1
   118    33    17    1
   119    33    32    1
   120    14    15    2
   121    14    13    1
   122    22    19    1
   123    13    16    1
   124    13    12    1
   125    16    17    1
   126    19    20    1
   127    80    81    1
   128    32    29    1
   129    28    20   am
   130    28    29    1
   131    20    21    2
   132    82    81    2
   133    81    83   am
   134    29    30    1
   135    12     3   am
   136     4     3    2
   137     3     2    1
   138    30    34   am
   139    30    31    2
   140    34    35    1
   141     2     1    1
   142     2     5    1
   143    38    35    1
   144    38    39    1
   145    35    36    1
   146     8    10   ar
   147     8     6   ar
   148    10    11   ar
   149     5     6    1
   150     6     7   ar
   151    41    39   ar
   152    41    43   ar
   153    39    40   ar
   154    11     9   ar
   155    36    37    2
   156    36    46   am
   157     7     9   ar
   158    43    44   ar
   159    40    42   ar
   160    46    47    1
   161    44    42   ar
   162    44    45    1
   163    49    48    2
   164    51    50    1
   165    51    52    1
   166    53    54    1
   167    53    52    1
   168    47    50    1
   169    47    48    1
