@<TRIPOS>MOLECULE
tmp/1o2lA00.pdb
 167 168 0 0 0
SMALL
GASTEIGER

@<TRIPOS>ATOM
      1  N         51.2820    3.6470   36.6250 N.3    24  PHE24      -0.1227
      2  CA        49.9390    3.0270   36.4350 C.3    24  PHE24       0.1736
      3  C         49.3930    3.3280   35.0080 C.2    24  PHE24       0.2595
      4  O         48.6450    2.5040   34.5030 O.2    24  PHE24      -0.2718
      5  CB        48.9080    3.5320   37.5660 C.3    24  PHE24       0.0547
      6  CG        48.5660    5.0080   37.5980 C.ar   24  PHE24      -0.0202
      7  CD1       49.3190    5.8720   38.3130 C.ar   24  PHE24      -0.0042
      8  CD2       47.5140    5.4360   36.8820 C.ar   24  PHE24      -0.0042
      9  CE1       48.9980    7.1970   38.3070 C.ar   24  PHE24      -0.0003
     10  CE2       47.2020    6.7430   36.8780 C.ar   24  PHE24      -0.0003
     11  CZ        47.9360    7.6380   37.5860 C.ar   24  PHE24      -0.0000
     12  N         49.7710    4.4430   34.4140 N.am   25  CYS25      -0.1970
     13  CA        49.2840    4.7680   33.0490 C.3    25  CYS25       0.1712
     14  C         50.3370    5.6000   32.3260 C.2    25  CYS25       0.2296
     15  O         51.2970    6.0450   32.9310 O.2    25  CYS25      -0.2864
     16  CB        47.9450    5.5900   33.1340 C.3    25  CYS25       0.0983
     17  SG        46.4220    4.7080   33.4510 S.3    25  CYS25      -0.0798
     18  N         39.9370    7.2500   32.3000 N.3    40  HIS40      -0.1226
     19  CA        39.8740    6.1510   33.2990 C.3    40  HIS40       0.1752
     20  C         41.2160    5.9770   34.0660 C.2    40  HIS40       0.2596
     21  O         41.3690    5.0880   34.8840 O.2    40  HIS40      -0.2718
     22  CB        39.4450    4.8200   32.5880 C.3    40  HIS40       0.0759
     23  CG        40.4760    4.0570   31.7490 C.ar   40  HIS40       0.0818
     24  ND1       40.7200    4.1740   30.4680 N.ar   40  HIS40      -0.2268
     25  CD2       41.3250    3.0990   32.2280 C.ar   40  HIS40       0.1154
     26  CE1       41.6740    3.3310   30.1600 C.ar   40  HIS40       0.1986
     27  NE2       42.0470    2.6740   31.2280 N.ar   40  HIS40      -0.2212
     28  N         42.1590    6.8210   33.8000 N.am   41  CYS41      -0.1970
     29  CA        43.4550    6.7310   34.5040 C.3    41  CYS41       0.1712
     30  C         43.4140    7.8370   35.5680 C.2    41  CYS41       0.2296
     31  O         44.3800    8.0820   36.2560 O.2    41  CYS41      -0.2864
     32  CB        44.6490    7.0590   33.5830 C.3    41  CYS41       0.0983
     33  SG        45.1210    5.9020   32.3220 S.3    41  CYS41      -0.0798
     34  N         42.8750    9.9260   38.9490 N.3    43  LYS43      -0.1245
     35  CA        43.0910    9.7290   40.4020 C.3    43  LYS43       0.1561
     36  C         43.7790   10.9420   40.9310 C.2    43  LYS43       0.2260
     37  O         44.3060   11.7600   40.1980 O.2    43  LYS43      -0.2867
     38  CB        43.9180    8.5450   40.7190 C.3    43  LYS43       0.0271
     39  CG        45.2830    8.6750   40.2460 C.3    43  LYS43       0.0035
     40  CD        46.0550    7.5950   40.9240 C.3    43  LYS43       0.0206
     41  CE        45.5410    6.2520   40.4720 C.3    43  LYS43       0.1093
     42  NZ        46.4610    5.2020   40.9870 N.3    43  LYS43      -0.1314
     43  N         50.2290   -6.1650   20.6040 N.3   171  ASP171     -0.1225
     44  CA        49.1300   -5.2670   21.0290 C.3   171  ASP171      0.1805
     45  C         49.5880   -4.3740   22.1840 C.2   171  ASP171      0.2598
     46  O         50.6820   -4.5440   22.7230 O.2   171  ASP171     -0.2718
     47  CB        48.0290   -6.1870   21.4650 C.3   171  ASP171      0.1424
     48  CG        46.6740   -5.5430   21.6390 C.2   171  ASP171      0.3668
     49  OD1       45.8520   -6.2230   22.2280 O.co2 171  ASP171     -0.2456
     50  OD2       46.5280   -4.4220   21.1700 O.co2 171  ASP171     -0.2456
     51  N         48.7540   -3.4330   22.5610 N.am  172  SER172     -0.1938
     52  CA        49.1290   -2.5630   23.7080 C.3   172  SER172      0.2055
     53  C         48.4660   -3.4080   24.8670 C.2   172  SER172      0.2643
     54  O         47.7340   -4.3450   24.6020 O.2   172  SER172     -0.2714
     55  CB        48.5070   -1.1400   23.5290 C.3   172  SER172      0.2130
     56  OG        47.0930   -1.2630   23.4820 O.3   172  SER172     -0.2179
     57  N         48.7200   -3.0870   26.1120 N.am  173  CYS173     -0.1953
     58  CA        48.1160   -3.8710   27.2310 C.3   173  CYS173      0.1843
     59  C         48.0160   -2.9860   28.4940 C.2   173  CYS173      0.2625
     60  O         48.3040   -1.7920   28.4570 O.2   173  CYS173     -0.2714
     61  CB        49.0170   -5.1050   27.4660 C.3   173  CYS173      0.0997
     62  SG        48.2910   -6.4740   28.3940 S.3   173  CYS173     -0.0797
     63  N         47.6240   -3.6170   29.5780 N.am  174  GLN174     -0.1963
     64  CA        47.4810   -2.8920   30.8890 C.3   174  GLN174      0.1733
     65  C         48.8370   -2.2230   31.1900 C.2   174  GLN174      0.2616
     66  O         49.8850   -2.8260   30.9800 O.2   174  GLN174     -0.2715
     67  CB        47.1250   -3.9050   32.0310 C.3   174  GLN174      0.0408
     68  CG        46.9110   -3.1440   33.3780 C.3   174  GLN174      0.0908
     69  CD        46.4040   -4.1560   34.3960 C.2   174  GLN174      0.2608
     70  OE1       46.7320   -5.3230   34.3500 O.2   174  GLN174     -0.2717
     71  NE2       45.6000   -3.7510   35.3260 N.am  174  GLN174     -0.0878
     72  N         48.7880   -0.9940   31.6750 N.am  175  GLY175     -0.1955
     73  CA        50.0740   -0.2610   31.9910 C.3   175  GLY175      0.1869
     74  C         50.3590    0.7160   30.8630 C.2   175  GLY175      0.2309
     75  O         51.0540    1.7060   31.0270 O.2   175  GLY175     -0.2863
     76  N         47.6730    1.9030   29.0280 N.3   177  SER177     -0.1217
     77  CA        46.5190    2.8380   29.0120 C.3   177  SER177      0.1889
     78  C         46.9010    4.2670   29.2800 C.2   177  SER177      0.2288
     79  O         47.7300    4.4960   30.1310 O.2   177  SER177     -0.2866
     80  CB        45.5350    2.4870   30.0600 C.3   177  SER177      0.2089
     81  OG        45.4400    1.0840   29.8400 O.3   177  SER177     -0.2183
     82  N         45.5900    5.0980   24.2490 N.3   191  VAL191     -0.1231
     83  CA        45.3520    3.6690   24.5700 C.3   191  VAL191      0.1692
     84  C         44.1460    3.6900   25.5420 C.2   191  VAL191      0.2593
     85  O         44.2250    4.3070   26.6080 O.2   191  VAL191     -0.2718
     86  CB        46.6610    3.1080   25.2050 C.3   191  VAL191      0.0266
     87  CG1       46.5020    1.5960   25.4530 C.3   191  VAL191      0.0020
     88  CG2       47.8810    3.4020   24.2660 C.3   191  VAL191      0.0020
     89  N         43.0900    3.0220   25.1340 N.am  192  SER192     -0.1938
     90  CA        41.9010    2.9990   25.9760 C.3   192  SER192      0.2055
     91  C         41.5390    1.6070   26.4760 C.2   192  SER192      0.2643
     92  O         41.7740    1.3410   27.6420 O.2   192  SER192     -0.2714
     93  CB        40.7710    3.6730   25.1290 C.3   192  SER192      0.2130
     94  OG        39.5880    3.7740   25.9080 O.3   192  SER192     -0.2179
     95  N         41.0000    0.7370   25.6510 N.am  193  TRP193     -0.1959
     96  CA        40.6160   -0.6170   26.1400 C.3   193  TRP193      0.1771
     97  C         40.7120   -1.7350   25.0890 C.2   193  TRP193      0.2620
     98  O         41.0240   -1.4960   23.9430 O.2   193  TRP193     -0.2715
     99  CB        39.1480   -0.5830   26.6520 C.3   193  TRP193      0.0590
    100  CG        38.0930   -0.1610   25.5940 C.ar  193  TRP193      0.0006
    101  CD1       37.7700    1.1190   25.1510 C.ar  193  TRP193      0.0946
    102  CD2       37.2560   -1.0220   24.9160 C.ar  193  TRP193      0.0152
    103  NE1       36.7980    1.0380   24.2690 N.ar  193  TRP193     -0.2442
    104  CE2       36.4470   -0.2180   24.0890 C.ar  193  TRP193      0.0810
    105  CE3       37.1120   -2.4020   24.9230 C.ar  193  TRP193      0.0012
    106  CZ2       35.4950   -0.8160   23.2630 C.ar  193  TRP193      0.0191
    107  CZ3       36.1660   -3.0030   24.0970 C.ar  193  TRP193      0.0001
    108  CH2       35.3580   -2.2100   23.2730 C.ar  193  TRP193      0.0015
    109  N         40.4520   -2.9460   25.4980 N.am  194  GLY194     -0.1940
    110  CA        40.4980   -4.0790   24.5530 C.3   194  GLY194      0.2014
    111  C         40.0870   -5.2750   25.3370 C.2   194  GLY194      0.2640
    112  O         39.9160   -5.1470   26.5340 O.2   194  GLY194     -0.2714
    113  N         39.9190   -6.4000   24.6920 N.am  195  SER195     -0.1935
    114  CA        39.5130   -7.6490   25.4110 C.3   195  SER195      0.2055
    115  C         40.8140   -8.4240   25.5480 C.2   195  SER195      0.2644
    116  O         41.2940   -9.0320   24.6000 O.2   195  SER195     -0.2714
    117  CB        38.5180   -8.5150   24.6080 C.3   195  SER195      0.2130
    118  OG        37.2880   -7.7900   24.5800 O.3   195  SER195     -0.2179
    119  N         41.3650   -8.3680   26.7220 N.am  196  GLY196     -0.1939
    120  CA        42.6510   -9.0870   26.9800 C.3   196  GLY196      0.2014
    121  C         43.6660   -8.2680   26.2230 C.2   196  GLY196      0.2639
    122  O         43.4240   -7.1080   25.8980 O.2   196  GLY196     -0.2714
    123  N         44.7600   -8.9070   25.9850 N.am  197  CYS197     -0.1967
    124  CA        45.8490   -8.2850   25.2530 C.3   197  CYS197      0.1712
    125  C         46.2950   -9.3320   24.2710 C.2   197  CYS197      0.2296
    126  O         46.3310  -10.5130   24.5670 O.2   197  CYS197     -0.2864
    127  CB        46.9680   -7.9500   26.1990 C.3   197  CYS197      0.0983
    128  SG        46.5110   -6.7600   27.4830 S.3   197  CYS197     -0.0798
    129  N         40.7230   -9.5710   18.5600 N.3   202  LYS202     -0.1231
    130  CA        40.3450   -8.5670   19.6030 C.3   202  LYS202      0.1678
    131  C         41.4450   -7.5120   19.5990 C.2   202  LYS202      0.2434
    132  O         42.3450   -7.5560   20.4310 O.2   202  LYS202     -0.2733
    133  CB        40.2660   -9.2290   21.0000 C.3   202  LYS202      0.0284
    134  CG        39.1290  -10.2980   21.1200 C.3   202  LYS202      0.0035
    135  CD        37.7050   -9.6380   20.9830 C.3   202  LYS202      0.0206
    136  CE        36.6130  -10.7080   21.1940 C.3   202  LYS202      0.1093
    137  NZ        35.2720  -10.1060   20.9660 N.3   202  LYS202     -0.1314
    138  N         41.3740   -6.5890   18.6660 N.am  203  PRO203     -0.2718
    139  CA        42.3630   -5.4910   18.5680 C.3   203  PRO203      0.1535
    140  C         42.2320   -4.4450   19.6960 C.2   203  PRO203      0.2599
    141  O         41.2960   -4.4930   20.4660 O.2   203  PRO203     -0.2715
    142  CB        42.0880   -4.9460   17.2060 C.3   203  PRO203      0.0310
    143  CG        40.5640   -5.1360   17.0310 C.3   203  PRO203      0.0237
    144  CD        40.3440   -6.5150   17.6050 C.3   203  PRO203      0.0939
    145  N         43.1620   -3.5300   19.7410 N.am  204  GLY204     -0.1941
    146  CA        43.1240   -2.4700   20.7900 C.3   204  GLY204      0.2014
    147  C         42.1390   -1.4430   20.2960 C.2   204  GLY204      0.2639
    148  O         41.9720   -1.3520   19.0910 O.2   204  GLY204     -0.2714
    149  N         41.5390   -0.7330   21.2260 N.am  205  VAL205     -0.1963
    150  CA        40.5460    0.3250   20.9440 C.3   205  VAL205      0.1727
    151  C         41.2090    1.5510   21.5790 C.2   205  VAL205      0.2616
    152  O         41.7100    1.5020   22.6900 O.2   205  VAL205     -0.2715
    153  CB        39.2060   -0.0960   21.6100 C.3   205  VAL205      0.0290
    154  CG1       38.1340    0.8350   21.1620 C.3   205  VAL205      0.0023
    155  CG2       38.7900   -1.5070   21.0700 C.3   205  VAL205      0.0023
    156  N         41.1760    2.6140   20.8260 N.am  206  TYR206     -0.1974
    157  CA        41.7740    3.9210   21.1730 C.3   206  TYR206      0.1639
    158  C         40.8410    5.1040   21.0910 C.2   206  TYR206      0.2290
    159  O         39.9290    5.0760   20.2900 O.2   206  TYR206     -0.2864
    160  CB        43.0380    4.0810   20.1800 C.3   206  TYR206      0.0560
    161  CG        43.9830    2.8870   20.2810 C.ar  206  TYR206     -0.0198
    162  CD1       44.9950    2.9100   21.2080 C.ar  206  TYR206     -0.0009
    163  CD2       43.8390    1.7780   19.4990 C.ar  206  TYR206     -0.0009
    164  CE1       45.8530    1.8550   21.3710 C.ar  206  TYR206      0.0417
    165  CE2       44.7020    0.6980   19.6530 C.ar  206  TYR206      0.0417
    166  CZ        45.7220    0.7360   20.6030 C.ar  206  TYR206      0.1957
    167  OH        46.6120   -0.3130   20.7880 O.3   206  TYR206     -0.2866
@<TRIPOS>BOND
     1   143   142    1
     2   143   144    1
     3   142   139    1
     4   144   138    1
     5   129   130    1
     6   139   138    1
     7   139   140    1
     8   138   131   am
     9   148   147    2
    10   163   165   ar
    11   163   161   ar
    12   131   130    1
    13   131   132    2
    14   130   133    1
    15   165   166   ar
    16   140   145   am
    17   140   141    2
    18   145   146    1
    19   160   161    1
    20   160   157    1
    21   161   162   ar
    22   159   158    2
    23   147   146    1
    24   147   149   am
    25   166   167    1
    26   166   164   ar
    27    43    44    1
    28   156   157    1
    29   156   151   am
    30   150   149    1
    31   150   151    1
    32   150   153    1
    33   137   136    1
    34   135   134    1
    35   135   136    1
    36   133   134    1
    37    44    47    1
    38    44    45    1
    39   155   153    1
    40   158   157    1
    41   154   153    1
    42    50    48   ar
    43   162   164   ar
    44    47    48    1
    45   151   152    2
    46    48    49   ar
    47    45    51   am
    48    45    46    2
    49    51    52    1
    50   106   108   ar
    51   106   104   ar
    52   108   107   ar
    53    56    55    1
    54    55    52    1
    55    52    53    1
    56    98    97    2
    57   104   103   ar
    58   104   102   ar
    59   107   105   ar
    60    82    83    1
    61    88    86    1
    62   103   101   ar
    63   125   126    2
    64   125   124    1
    65   110   111    1
    66   110   109    1
    67    83    86    1
    68    83    84    1
    69   118   117    1
    70   116   115    2
    71    54    53    2
    72   117   114    1
    73   113   111   am
    74   113   114    1
    75    53    57   am
    76   102   105   ar
    77   102   100   ar
    78    97   109   am
    79    97    96    1
    80    93    94    1
    81    93    90    1
    82    89    84   am
    83    89    90    1
    84   101   100   ar
    85    86    87    1
    86   124   123    1
    87   124   127    1
    88   111   112    2
    89   114   115    1
    90    84    85    2
    91   115   119   am
    92   100    99    1
    93    95    96    1
    94    95    91   am
    95   122   121    2
    96    90    91    1
    97   123   121   am
    98    57    58    1
    99    96    99    1
   100   127   128    1
   101   121   120    1
   102    91    92    2
   103   119   120    1
   104    58    61    1
   105    58    59    1
   106    61    62    1
   107   128    62    1
   108    60    59    2
   109    59    63   am
   110    77    76    1
   111    77    78    1
   112    77    80    1
   113    78    79    2
   114    63    64    1
   115    81    80    1
   116    26    24   ar
   117    26    27   ar
   118    24    23   ar
   119    74    75    2
   120    74    73    1
   121    64    65    1
   122    64    67    1
   123    66    65    2
   124    65    72   am
   125    27    25   ar
   126    72    73    1
   127    23    25   ar
   128    23    22    1
   129    67    68    1
   130    18    19    1
   131    33    17    1
   132    33    32    1
   133    14    15    2
   134    14    13    1
   135    22    19    1
   136    13    16    1
   137    13    12    1
   138    16    17    1
   139    19    20    1
   140    68    69    1
   141    32    29    1
   142    28    20   am
   143    28    29    1
   144    20    21    2
   145    70    69    2
   146    69    71   am
   147    12     3   am
   148     4     3    2
   149    29    30    1
   150     3     2    1
   151    30    31    2
   152     2     1    1
   153     2     5    1
   154    10     8   ar
   155    10    11   ar
   156     8     6   ar
   157     5     6    1
   158    11     9   ar
   159     6     7   ar
   160     9     7   ar
   161    34    35    1
   162    37    36    2
   163    39    38    1
   164    39    40    1
   165    35    38    1
   166    35    36    1
   167    41    40    1
   168    41    42    1
