@<TRIPOS>MOLECULE
tmp/1o2pA00.pdb
 167 168 0 0 0
SMALL
GASTEIGER

@<TRIPOS>ATOM
      1  N         50.8950    4.1930   36.7150 N.3    24  PHE24      -0.1227
      2  CA        49.5520    3.5680   36.5510 C.3    24  PHE24       0.1736
      3  C         49.0340    3.8930   35.1410 C.2    24  PHE24       0.2595
      4  O         48.1910    3.1400   34.7020 O.2    24  PHE24      -0.2718
      5  CB        48.5590    4.0820   37.6420 C.3    24  PHE24       0.0547
      6  CG        48.2620    5.5460   37.6300 C.ar   24  PHE24      -0.0202
      7  CD1       49.0070    6.4280   38.3760 C.ar   24  PHE24      -0.0042
      8  CD2       47.2160    5.9930   36.8780 C.ar   24  PHE24      -0.0042
      9  CE1       48.6870    7.7690   38.3620 C.ar   24  PHE24      -0.0003
     10  CE2       46.9060    7.3290   36.8700 C.ar   24  PHE24      -0.0003
     11  CZ        47.6280    8.2240   37.6030 C.ar   24  PHE24      -0.0000
     12  N         49.4600    4.9200   34.4390 N.am   25  CYS25      -0.1970
     13  CA        48.9410    5.1820   33.0840 C.3    25  CYS25       0.1712
     14  C         49.9410    5.9930   32.3330 C.2    25  CYS25       0.2296
     15  O         50.8350    6.5580   32.9320 O.2    25  CYS25      -0.2864
     16  CB        47.6300    5.9730   33.1280 C.3    25  CYS25       0.0983
     17  SG        46.0690    5.0300   33.3770 S.3    25  CYS25      -0.0798
     18  N         39.5810    7.4220   32.1570 N.3    40  HIS40      -0.1226
     19  CA        39.5580    6.3560   33.1800 C.3    40  HIS40       0.1752
     20  C         40.8830    6.2710   33.9360 C.2    40  HIS40       0.2596
     21  O         41.0060    5.4610   34.8360 O.2    40  HIS40      -0.2718
     22  CB        39.1840    5.0070   32.5070 C.3    40  HIS40       0.0759
     23  CG        40.2370    4.2060   31.7290 C.ar   40  HIS40       0.0818
     24  ND1       40.4320    4.1700   30.4420 N.ar   40  HIS40      -0.2268
     25  CD2       41.1580    3.3360   32.2720 C.ar   40  HIS40       0.1154
     26  CE1       41.4080    3.3330   30.1720 C.ar   40  HIS40       0.1986
     27  NE2       41.8600    2.8170   31.2850 N.ar   40  HIS40      -0.2212
     28  N         41.8580    7.0640   33.6100 N.am   41  CYS41      -0.1970
     29  CA        43.1480    7.0350   34.3330 C.3    41  CYS41       0.1712
     30  C         43.0250    8.1540   35.3650 C.2    41  CYS41       0.2296
     31  O         43.9600    8.4350   36.0850 O.2    41  CYS41      -0.2864
     32  CB        44.3000    7.3880   33.4140 C.3    41  CYS41       0.0983
     33  SG        44.7590    6.1010   32.2520 S.3    41  CYS41      -0.0798
     34  N         42.5920   10.3100   38.7450 N.3    43  LYS43      -0.1245
     35  CA        42.7200   10.0730   40.2080 C.3    43  LYS43       0.1561
     36  C         43.3210   11.3610   40.7390 C.2    43  LYS43       0.2260
     37  O         43.7920   12.1720   39.9580 O.2    43  LYS43      -0.2867
     38  CB        43.6220    8.8990   40.5440 C.3    43  LYS43       0.0271
     39  CG        45.0500    9.1410   40.1750 C.3    43  LYS43       0.0035
     40  CD        45.8680    8.0730   40.8800 C.3    43  LYS43       0.0206
     41  CE        45.4580    6.6820   40.4160 C.3    43  LYS43       0.1093
     42  NZ        46.3270    5.7080   41.1280 N.3    43  LYS43      -0.1314
     43  N         50.1030   -6.3110   21.0320 N.3   171  ASP171     -0.1225
     44  CA        48.9790   -5.4160   21.4250 C.3   171  ASP171      0.1805
     45  C         49.4150   -4.4810   22.5480 C.2   171  ASP171      0.2598
     46  O         50.5140   -4.6260   23.0710 O.2   171  ASP171     -0.2718
     47  CB        47.8510   -6.2910   21.9470 C.3   171  ASP171      0.1424
     48  CG        46.5070   -5.6140   22.0140 C.2   171  ASP171      0.3668
     49  OD1       45.6130   -6.1690   22.6350 O.co2 171  ASP171     -0.2456
     50  OD2       46.3160   -4.5470   21.4600 O.co2 171  ASP171     -0.2456
     51  N         48.5870   -3.5450   22.9250 N.am  172  SER172     -0.1938
     52  CA        48.9070   -2.6230   24.0320 C.3   172  SER172      0.2055
     53  C         48.1980   -3.4060   25.1780 C.2   172  SER172      0.2643
     54  O         47.4850   -4.3700   24.9110 O.2   172  SER172     -0.2714
     55  CB        48.2870   -1.2230   23.7780 C.3   172  SER172      0.2130
     56  OG        46.9140   -1.3590   23.4000 O.3   172  SER172     -0.2179
     57  N         48.3550   -3.0290   26.4080 N.am  173  CYS173     -0.1953
     58  CA        47.7210   -3.7500   27.5370 C.3   173  CYS173      0.1843
     59  C         47.5990   -2.8050   28.7460 C.2   173  CYS173      0.2625
     60  O         47.9790   -1.6390   28.6450 O.2   173  CYS173     -0.2714
     61  CB        48.6170   -4.9710   27.8430 C.3   173  CYS173      0.0997
     62  SG        47.9170   -6.2780   28.8740 S.3   173  CYS173     -0.0797
     63  N         47.0980   -3.2890   29.8530 N.am  174  GLN174     -0.1963
     64  CA        46.9270   -2.4620   31.1020 C.3   174  GLN174      0.1733
     65  C         48.2540   -1.7510   31.4160 C.2   174  GLN174      0.2616
     66  O         49.3170   -2.3610   31.3020 O.2   174  GLN174     -0.2715
     67  CB        46.5170   -3.4210   32.2190 C.3   174  GLN174      0.0408
     68  CG        46.3530   -2.7070   33.5660 C.3   174  GLN174      0.0908
     69  CD        45.8310   -3.7220   34.5860 C.2   174  GLN174      0.2608
     70  OE1       45.8050   -4.9080   34.3120 O.2   174  GLN174     -0.2717
     71  NE2       45.4110   -3.3390   35.7490 N.am  174  GLN174     -0.0878
     72  N         48.2500   -0.4960   31.8070 N.am  175  GLY175     -0.1955
     73  CA        49.5560    0.1880   32.1140 C.3   175  GLY175      0.1869
     74  C         49.9100    1.0700   30.9360 C.2   175  GLY175      0.2309
     75  O         50.5780    2.0710   31.0890 O.2   175  GLY175     -0.2863
     76  N         47.4780    2.1110   29.0640 N.3   177  SER177     -0.1217
     77  CA        46.2340    2.9440   29.0710 C.3   177  SER177      0.1889
     78  C         46.5590    4.4500   29.1710 C.2   177  SER177      0.2288
     79  O         47.4180    4.8010   29.9580 O.2   177  SER177     -0.2866
     80  CB        45.3630    2.4830   30.2780 C.3   177  SER177      0.2089
     81  OG        44.5160    1.4060   29.8390 O.3   177  SER177     -0.2183
     82  N         45.3050    5.0610   24.1800 N.3   191  VAL191     -0.1231
     83  CA        45.0910    3.6430   24.5770 C.3   191  VAL191      0.1692
     84  C         43.8840    3.6500   25.5250 C.2   191  VAL191      0.2593
     85  O         43.9590    4.2290   26.6060 O.2   191  VAL191     -0.2718
     86  CB        46.3770    3.1360   25.2600 C.3   191  VAL191      0.0266
     87  CG1       46.1990    1.6840   25.6610 C.3   191  VAL191      0.0020
     88  CG2       47.5950    3.2880   24.3150 C.3   191  VAL191      0.0020
     89  N         42.8010    3.0190   25.1460 N.am  192  SER192     -0.1938
     90  CA        41.5870    2.9960   25.9890 C.3   192  SER192      0.2055
     91  C         41.1700    1.6200   26.5010 C.2   192  SER192      0.2643
     92  O         41.3340    1.3800   27.6850 O.2   192  SER192     -0.2714
     93  CB        40.4650    3.6600   25.1320 C.3   192  SER192      0.2130
     94  OG        39.2560    3.7640   25.8960 O.3   192  SER192     -0.2179
     95  N         40.6560    0.6940   25.7090 N.am  193  TRP193     -0.1959
     96  CA        40.2570   -0.6230   26.3050 C.3   193  TRP193      0.1771
     97  C         40.3760   -1.7420   25.3010 C.2   193  TRP193      0.2620
     98  O         40.7170   -1.5240   24.1550 O.2   193  TRP193     -0.2715
     99  CB        38.7780   -0.5560   26.8170 C.3   193  TRP193      0.0590
    100  CG        37.7720   -0.1840   25.7240 C.ar  193  TRP193      0.0006
    101  CD1       37.4840    1.0640   25.2330 C.ar  193  TRP193      0.0946
    102  CD2       36.9910   -1.0730   25.0400 C.ar  193  TRP193      0.0152
    103  NE1       36.5700    0.9360   24.2950 N.ar  193  TRP193     -0.2442
    104  CE2       36.2330   -0.3180   24.1280 C.ar  193  TRP193      0.0810
    105  CE3       36.8550   -2.4480   25.1020 C.ar  193  TRP193      0.0012
    106  CZ2       35.3350   -0.9680   23.2640 C.ar  193  TRP193      0.0191
    107  CZ3       35.9590   -3.1000   24.2420 C.ar  193  TRP193      0.0001
    108  CH2       35.2040   -2.3610   23.3280 C.ar  193  TRP193      0.0015
    109  N         40.1220   -2.9380   25.6990 N.am  194  GLY194     -0.1940
    110  CA        40.2040   -4.0850   24.7720 C.3   194  GLY194      0.2014
    111  C         39.8270   -5.3130   25.5960 C.2   194  GLY194      0.2640
    112  O         39.7270   -5.2080   26.8070 O.2   194  GLY194     -0.2714
    113  N         39.6170   -6.4560   24.9960 N.am  195  SER195     -0.1935
    114  CA        39.2570   -7.6770   25.7830 C.3   195  SER195      0.2055
    115  C         40.6020   -8.4070   25.9870 C.2   195  SER195      0.2644
    116  O         41.1340   -8.9890   25.0420 O.2   195  SER195     -0.2714
    117  CB        38.2970   -8.5870   24.9990 C.3   195  SER195      0.2130
    118  OG        37.0860   -7.8420   24.8760 O.3   195  SER195     -0.2179
    119  N         41.1360   -8.3440   27.1830 N.am  196  GLY196     -0.1939
    120  CA        42.4220   -9.0200   27.4800 C.3   196  GLY196      0.2014
    121  C         43.4780   -8.2820   26.6910 C.2   196  GLY196      0.2639
    122  O         43.2430   -7.1460   26.2850 O.2   196  GLY196     -0.2714
    123  N         44.5970   -8.8960   26.4770 N.am  197  CYS197     -0.1967
    124  CA        45.6670   -8.2610   25.7160 C.3   197  CYS197      0.1712
    125  C         46.2170   -9.2980   24.7940 C.2   197  CYS197      0.2296
    126  O         46.4460  -10.4230   25.1960 O.2   197  CYS197     -0.2864
    127  CB        46.7560   -7.7990   26.6370 C.3   197  CYS197      0.0983
    128  SG        46.1810   -6.6320   27.8920 S.3   197  CYS197     -0.0798
    129  N         40.5660   -9.8130   18.9780 N.3   202  LYS202     -0.1231
    130  CA        40.1540   -8.8360   20.0360 C.3   202  LYS202      0.1678
    131  C         41.2430   -7.7490   20.0210 C.2   202  LYS202      0.2434
    132  O         42.0870   -7.6820   20.9160 O.2   202  LYS202     -0.2733
    133  CB        40.0960   -9.5430   21.4070 C.3   202  LYS202      0.0284
    134  CG        38.9600  -10.6030   21.4410 C.3   202  LYS202      0.0035
    135  CD        37.5700   -9.9080   21.2920 C.3   202  LYS202      0.0206
    136  CE        36.4520  -10.9690   21.2990 C.3   202  LYS202      0.1093
    137  NZ        35.1480  -10.3150   20.9960 N.3   202  LYS202     -0.1314
    138  N         41.2600   -6.9040   19.0190 N.am  203  PRO203     -0.2718
    139  CA        42.2210   -5.7920   18.9210 C.3   203  PRO203      0.1535
    140  C         42.0380   -4.7130   20.0180 C.2   203  PRO203      0.2599
    141  O         41.0760   -4.7240   20.7740 O.2   203  PRO203     -0.2715
    142  CB        42.0090   -5.2850   17.4900 C.3   203  PRO203      0.0310
    143  CG        40.5360   -5.5990   17.2020 C.3   203  PRO203      0.0237
    144  CD        40.3380   -6.9510   17.8620 C.3   203  PRO203      0.0939
    145  N         42.9440   -3.7790   20.1140 N.am  204  GLY204     -0.1941
    146  CA        42.8090   -2.7210   21.1430 C.3   204  GLY204      0.2014
    147  C         41.8790   -1.6760   20.5420 C.2   204  GLY204      0.2639
    148  O         41.7980   -1.5590   19.3240 O.2   204  GLY204     -0.2714
    149  N         41.1980   -0.9380   21.3870 N.am  205  VAL205     -0.1963
    150  CA        40.2570    0.1240   20.9840 C.3   205  VAL205      0.1727
    151  C         40.9010    1.3650   21.5940 C.2   205  VAL205      0.2616
    152  O         41.3530    1.4010   22.7310 O.2   205  VAL205     -0.2715
    153  CB        38.8450   -0.1620   21.5710 C.3   205  VAL205      0.0290
    154  CG1       37.8770    0.8440   20.9700 C.3   205  VAL205      0.0023
    155  CG2       38.4080   -1.5620   21.1540 C.3   205  VAL205      0.0023
    156  N         40.9220    2.3710   20.7760 N.am  206  TYR206     -0.1974
    157  CA        41.5060    3.6910   21.0550 C.3   206  TYR206      0.1639
    158  C         40.5660    4.8590   20.9150 C.2   206  TYR206      0.2290
    159  O         39.6810    4.8230   20.0710 O.2   206  TYR206     -0.2864
    160  CB        42.7140    3.8130   20.0620 C.3   206  TYR206      0.0560
    161  CG        43.6680    2.6180   20.2650 C.ar  206  TYR206     -0.0198
    162  CD1       44.6320    2.7140   21.2380 C.ar  206  TYR206     -0.0009
    163  CD2       43.5620    1.4330   19.5310 C.ar  206  TYR206     -0.0009
    164  CE1       45.4780    1.6560   21.4940 C.ar  206  TYR206      0.0417
    165  CE2       44.4180    0.3630   19.7880 C.ar  206  TYR206      0.0417
    166  CZ        45.3820    0.4790   20.7800 C.ar  206  TYR206      0.1957
    167  OH        46.2380   -0.5670   21.0550 O.3   206  TYR206     -0.2866
@<TRIPOS>BOND
     1   143   142    1
     2   143   144    1
     3   142   139    1
     4   144   138    1
     5   139   138    1
     6   139   140    1
     7   129   130    1
     8   138   131   am
     9   148   147    2
    10   163   165   ar
    11   163   161   ar
    12   165   166   ar
    13   140   145   am
    14   140   141    2
    15   131   130    1
    16   131   132    2
    17   130   133    1
    18   160   161    1
    19   160   157    1
    20   159   158    2
    21   145   146    1
    22   161   162   ar
    23   147   146    1
    24   147   149   am
    25   156   157    1
    26   156   151   am
    27   166   167    1
    28   166   164   ar
    29   158   157    1
    30   154   153    1
    31   150   149    1
    32   150   153    1
    33   150   151    1
    34   137   136    1
    35    43    44    1
    36   155   153    1
    37   162   164   ar
    38   135   136    1
    39   135   134    1
    40   133   134    1
    41    44    47    1
    42    44    45    1
    43    50    48   ar
    44   151   152    2
    45    47    48    1
    46    48    49   ar
    47    45    51   am
    48    45    46    2
    49    51    52    1
    50   106   108   ar
    51   106   104   ar
    52   108   107   ar
    53    56    55    1
    54    55    52    1
    55    52    53    1
    56   104   103   ar
    57   104   102   ar
    58    98    97    2
    59    82    83    1
    60   107   105   ar
    61   103   101   ar
    62    88    86    1
    63    83    86    1
    64    83    84    1
    65   110   111    1
    66   110   109    1
    67   125   126    2
    68   125   124    1
    69   118   117    1
    70    54    53    2
    71   113   111   am
    72   113   114    1
    73   117   114    1
    74   102   105   ar
    75   102   100   ar
    76   116   115    2
    77    93    94    1
    78    93    90    1
    79    89    84   am
    80    89    90    1
    81    53    57   am
    82   101   100   ar
    83    86    87    1
    84    97   109   am
    85    97    96    1
    86    84    85    2
    87   111   112    2
    88    95    96    1
    89    95    91   am
    90   124   123    1
    91   124   127    1
    92   100    99    1
    93   114   115    1
    94   115   119   am
    95    90    91    1
    96   122   121    2
    97    96    99    1
    98    57    58    1
    99   123   121   am
   100    91    92    2
   101   127   128    1
   102   121   120    1
   103   119   120    1
   104    58    61    1
   105    58    59    1
   106    61    62    1
   107   128    62    1
   108    60    59    2
   109    59    63   am
   110    76    77    1
   111    77    78    1
   112    77    80    1
   113    78    79    2
   114    81    80    1
   115    63    64    1
   116    26    24   ar
   117    26    27   ar
   118    24    23   ar
   119    74    75    2
   120    74    73    1
   121    64    65    1
   122    64    67    1
   123    27    25   ar
   124    66    65    2
   125    65    72   am
   126    23    25   ar
   127    23    22    1
   128    72    73    1
   129    18    19    1
   130    67    68    1
   131    33    17    1
   132    33    32    1
   133    14    15    2
   134    14    13    1
   135    22    19    1
   136    13    16    1
   137    13    12    1
   138    16    17    1
   139    19    20    1
   140    32    29    1
   141    68    69    1
   142    28    20   am
   143    28    29    1
   144    20    21    2
   145    70    69    2
   146    29    30    1
   147    12     3   am
   148    69    71   am
   149     4     3    2
   150     3     2    1
   151    30    31    2
   152     2     1    1
   153     2     5    1
   154    10     8   ar
   155    10    11   ar
   156     8     6   ar
   157    11     9   ar
   158     6     5    1
   159     6     7   ar
   160     9     7   ar
   161    34    35    1
   162    37    36    2
   163    39    38    1
   164    39    40    1
   165    35    38    1
   166    35    36    1
   167    41    40    1
   168    41    42    1
