@<TRIPOS>MOLECULE
tmp/1o2rA00.pdb
 191 194 0 0 0
SMALL
GASTEIGER

@<TRIPOS>ATOM
      1  N         53.7500    5.0030   41.9920 N.3    22  TYR22      -0.1241
      2  CA        54.0130    3.8590   41.0660 C.3    22  TYR22       0.1605
      3  C         53.4660    4.3410   39.7240 C.2    22  TYR22       0.2264
      4  O         52.7180    5.3110   39.6940 O.2    22  TYR22      -0.2867
      5  CB        53.2620    2.5450   41.4670 C.3    22  TYR22       0.0534
      6  CG        51.7380    2.7800   41.6720 C.ar   22  TYR22      -0.0201
      7  CD1       51.3270    3.4590   42.8000 C.ar   22  TYR22      -0.0009
      8  CD2       50.7840    2.3740   40.7460 C.ar   22  TYR22      -0.0009
      9  CE1       50.0120    3.7490   43.0290 C.ar   22  TYR22       0.0417
     10  CE2       49.4530    2.6700   40.9840 C.ar   22  TYR22       0.0417
     11  CZ        49.0830    3.3550   42.1200 C.ar   22  TYR22       0.1957
     12  OH        47.7850    3.6900   42.4000 O.3    22  TYR22      -0.2866
     13  N         50.8780    4.2190   36.7930 N.3    24  PHE24      -0.1227
     14  CA        49.5150    3.6020   36.6520 C.3    24  PHE24       0.1736
     15  C         49.0110    3.8870   35.2040 C.2    24  PHE24       0.2595
     16  O         48.2810    3.0500   34.7210 O.2    24  PHE24      -0.2718
     17  CB        48.4870    4.1730   37.7150 C.3    24  PHE24       0.0547
     18  CG        48.2080    5.6400   37.6740 C.ar   24  PHE24      -0.0202
     19  CD1       48.9810    6.5200   38.3810 C.ar   24  PHE24      -0.0042
     20  CD2       47.1590    6.1050   36.9290 C.ar   24  PHE24      -0.0042
     21  CE1       48.7010    7.8800   38.3440 C.ar   24  PHE24      -0.0003
     22  CE2       46.9010    7.4580   36.9030 C.ar   24  PHE24      -0.0003
     23  CZ        47.6540    8.3520   37.5990 C.ar   24  PHE24      -0.0000
     24  N         49.3420    4.9630   34.5310 N.am   25  CYS25      -0.1970
     25  CA        48.8650    5.2060   33.1640 C.3    25  CYS25       0.1712
     26  C         49.8690    6.0160   32.3940 C.2    25  CYS25       0.2296
     27  O         50.7340    6.6430   32.9780 O.2    25  CYS25      -0.2864
     28  CB        47.5230    6.0080   33.1660 C.3    25  CYS25       0.0983
     29  SG        46.0280    5.0390   33.4430 S.3    25  CYS25      -0.0798
     30  N         39.5420    7.3790   32.1850 N.3    40  HIS40      -0.1226
     31  CA        39.5450    6.3350   33.2010 C.3    40  HIS40       0.1752
     32  C         40.8400    6.2040   33.9680 C.2    40  HIS40       0.2596
     33  O         40.9490    5.3500   34.8260 O.2    40  HIS40      -0.2718
     34  CB        39.2270    5.0390   32.5620 C.3    40  HIS40       0.0759
     35  CG        40.2310    4.1960   31.7420 C.ar   40  HIS40       0.0818
     36  ND1       40.4560    4.1740   30.4550 N.ar   40  HIS40      -0.2268
     37  CD2       41.0520    3.2400   32.2810 C.ar   40  HIS40       0.1154
     38  CE1       41.3590    3.2450   30.2010 C.ar   40  HIS40       0.1986
     39  NE2       41.7300    2.6690   31.3160 N.ar   40  HIS40      -0.2212
     40  N         41.7870    7.0330   33.6970 N.am   41  CYS41      -0.1956
     41  CA        43.0790    6.9970   34.4270 C.3    41  CYS41       0.1843
     42  C         42.9630    8.1240   35.4320 C.2    41  CYS41       0.2625
     43  O         43.8930    8.4020   36.1610 O.2    41  CYS41      -0.2714
     44  CB        44.2200    7.2930   33.4700 C.3    41  CYS41       0.0997
     45  SG        44.7000    5.9870   32.3770 S.3    41  CYS41      -0.0797
     46  N         41.8710    8.8180   35.5150 N.am   42  TYR42      -0.1960
     47  CA        41.7760    9.9150   36.4910 C.3    42  TYR42       0.1771
     48  C         41.9060    9.5380   37.9600 C.2    42  TYR42       0.2619
     49  O         41.4150    8.5090   38.3800 O.2    42  TYR42      -0.2715
     50  CB        40.4100   10.6200   36.3050 C.3    42  TYR42       0.0574
     51  CG        40.2040   11.6160   37.4460 C.ar   42  TYR42      -0.0198
     52  CD1       39.5750   11.2180   38.6130 C.ar   42  TYR42      -0.0009
     53  CD2       40.6890   12.8860   37.3180 C.ar   42  TYR42      -0.0009
     54  CE1       39.4400   12.0980   39.6530 C.ar   42  TYR42       0.0417
     55  CE2       40.5490   13.7600   38.3590 C.ar   42  TYR42       0.0417
     56  CZ        39.9320   13.3670   39.5160 C.ar   42  TYR42       0.1957
     57  OH        39.8570   14.3070   40.5150 O.3    42  TYR42      -0.2866
     58  N         42.5600   10.3370   38.7490 N.am   43  LYS43      -0.1977
     59  CA        42.7030   10.0820   40.2080 C.3    43  LYS43       0.1596
     60  C         43.2890   11.3580   40.7530 C.2    43  LYS43       0.2287
     61  O         43.7430   12.1810   39.9790 O.2    43  LYS43      -0.2864
     62  CB        43.6180    8.9110   40.5360 C.3    43  LYS43       0.0298
     63  CG        45.0560    9.1430   40.2060 C.3    43  LYS43       0.0038
     64  CD        45.8430    8.0510   40.9310 C.3    43  LYS43       0.0206
     65  CE        45.4170    6.6630   40.4610 C.3    43  LYS43       0.1093
     66  NZ        46.2400    5.6720   41.2010 N.3    43  LYS43      -0.1314
     67  N         50.1210   -6.3610   21.1070 N.3   171  ASP171     -0.1225
     68  CA        48.9900   -5.4640   21.4860 C.3   171  ASP171      0.1805
     69  C         49.3730   -4.5140   22.6160 C.2   171  ASP171      0.2598
     70  O         50.4550   -4.6390   23.1790 O.2   171  ASP171     -0.2718
     71  CB        47.8610   -6.3630   21.9620 C.3   171  ASP171      0.1424
     72  CG        46.5000   -5.7160   22.0360 C.2   171  ASP171      0.3668
     73  OD1       45.6340   -6.3350   22.6380 O.co2 171  ASP171     -0.2456
     74  OD2       46.2770   -4.6400   21.5200 O.co2 171  ASP171     -0.2456
     75  N         48.5250   -3.5810   22.9640 N.am  172  SER172     -0.1938
     76  CA        48.8210   -2.6610   24.0740 C.3   172  SER172      0.2055
     77  C         48.1420   -3.4360   25.2270 C.2   172  SER172      0.2643
     78  O         47.4430   -4.4160   24.9750 O.2   172  SER172     -0.2714
     79  CB        48.1770   -1.2770   23.8570 C.3   172  SER172      0.2130
     80  OG        46.8220   -1.4400   23.4470 O.3   172  SER172     -0.2179
     81  N         48.3080   -3.0540   26.4620 N.am  173  CYS173     -0.1953
     82  CA        47.6800   -3.7910   27.5760 C.3   173  CYS173      0.1843
     83  C         47.5430   -2.8530   28.7650 C.2   173  CYS173      0.2625
     84  O         47.9110   -1.6790   28.6680 O.2   173  CYS173     -0.2714
     85  CB        48.5600   -4.9810   27.9170 C.3   173  CYS173      0.0997
     86  SG        47.8300   -6.2490   28.9620 S.3   173  CYS173     -0.0797
     87  N         47.0310   -3.3590   29.8600 N.am  174  GLN174     -0.1963
     88  CA        46.8300   -2.5560   31.1120 C.3   174  GLN174      0.1733
     89  C         48.1280   -1.8080   31.4760 C.2   174  GLN174      0.2616
     90  O         49.1970   -2.4070   31.4460 O.2   174  GLN174     -0.2715
     91  CB        46.4030   -3.5510   32.1930 C.3   174  GLN174      0.0408
     92  CG        46.3140   -2.8940   33.5780 C.3   174  GLN174      0.0908
     93  CD        45.7620   -3.9250   34.5670 C.2   174  GLN174      0.2608
     94  OE1       45.6100   -5.0900   34.2400 O.2   174  GLN174     -0.2717
     95  NE2       45.4490   -3.5610   35.7670 N.am  174  GLN174     -0.0878
     96  N         48.1030   -0.5450   31.8090 N.am  175  GLY175     -0.1955
     97  CA        49.3940    0.1560   32.1600 C.3   175  GLY175      0.1869
     98  C         49.7780    1.0370   30.9820 C.2   175  GLY175      0.2309
     99  O         50.4350    2.0460   31.1430 O.2   175  GLY175     -0.2863
    100  N         47.4300    2.1620   29.1220 N.3   177  SER177     -0.1217
    101  CA        46.1640    2.9810   29.2100 C.3   177  SER177      0.1889
    102  C         46.4610    4.4530   29.2370 C.2   177  SER177      0.2288
    103  O         47.3190    4.8020   30.0250 O.2   177  SER177     -0.2866
    104  CB        45.4250    2.6090   30.5160 C.3   177  SER177      0.2089
    105  OG        45.4270    1.1710   30.5840 O.3   177  SER177     -0.2183
    106  N         45.2170    5.0070   24.2830 N.3   191  VAL191     -0.1231
    107  CA        44.9920    3.5950   24.6490 C.3   191  VAL191      0.1692
    108  C         43.7840    3.6130   25.5830 C.2   191  VAL191      0.2593
    109  O         43.8260    4.2420   26.6280 O.2   191  VAL191     -0.2718
    110  CB        46.2990    3.0470   25.3390 C.3   191  VAL191      0.0266
    111  CG1       46.0990    1.5830   25.7000 C.3   191  VAL191      0.0020
    112  CG2       47.5240    3.2080   24.3850 C.3   191  VAL191      0.0020
    113  N         42.7390    2.9200   25.2280 N.am  192  SER192     -0.1938
    114  CA        41.5170    2.9110   26.0650 C.3   192  SER192      0.2055
    115  C         41.1190    1.5520   26.5740 C.2   192  SER192      0.2643
    116  O         41.2570    1.3120   27.7550 O.2   192  SER192     -0.2714
    117  CB        40.4100    3.5760   25.1720 C.3   192  SER192      0.2130
    118  OG        39.2120    3.7060   25.9350 O.3   192  SER192     -0.2179
    119  N         40.6400    0.6400   25.7730 N.am  193  TRP193     -0.1959
    120  CA        40.2520   -0.6820   26.3340 C.3   193  TRP193      0.1771
    121  C         40.3840   -1.8200   25.3770 C.2   193  TRP193      0.2620
    122  O         40.7590   -1.6340   24.2340 O.2   193  TRP193     -0.2715
    123  CB        38.7920   -0.6270   26.8150 C.3   193  TRP193      0.0590
    124  CG        37.7900   -0.2700   25.7030 C.ar  193  TRP193      0.0006
    125  CD1       37.4970    0.9700   25.2170 C.ar  193  TRP193      0.0946
    126  CD2       37.0080   -1.1660   25.0440 C.ar  193  TRP193      0.0152
    127  NE1       36.5650    0.8360   24.2940 N.ar  193  TRP193     -0.2442
    128  CE2       36.2320   -0.4210   24.1440 C.ar  193  TRP193      0.0810
    129  CE3       36.8630   -2.5430   25.0990 C.ar  193  TRP193      0.0012
    130  CZ2       35.3110   -1.0840   23.3000 C.ar  193  TRP193      0.0191
    131  CZ3       35.9500   -3.2030   24.2600 C.ar  193  TRP193      0.0001
    132  CH2       35.1770   -2.4750   23.3630 C.ar  193  TRP193      0.0015
    133  N         40.0990   -3.0050   25.7960 N.am  194  GLY194     -0.1940
    134  CA        40.1960   -4.1520   24.8910 C.3   194  GLY194      0.2014
    135  C         39.8330   -5.3610   25.7170 C.2   194  GLY194      0.2640
    136  O         39.7180   -5.2360   26.9170 O.2   194  GLY194     -0.2714
    137  N         39.6520   -6.5030   25.1210 N.am  195  SER195     -0.1935
    138  CA        39.3040   -7.7410   25.8600 C.3   195  SER195      0.2055
    139  C         40.6160   -8.5210   26.0350 C.2   195  SER195      0.2644
    140  O         41.1280   -9.1080   25.0840 O.2   195  SER195     -0.2714
    141  CB        38.3160   -8.5880   25.0580 C.3   195  SER195      0.2130
    142  OG        37.1420   -7.7840   24.9650 O.3   195  SER195     -0.2179
    143  N         41.1590   -8.5010   27.2250 N.am  196  GLY196     -0.1939
    144  CA        42.4230   -9.2280   27.5030 C.3   196  GLY196      0.2014
    145  C         43.4860   -8.4180   26.7690 C.2   196  GLY196      0.2639
    146  O         43.2520   -7.2480   26.4620 O.2   196  GLY196     -0.2714
    147  N         44.6070   -9.0190   26.5030 N.am  197  CYS197     -0.1967
    148  CA        45.6940   -8.3410   25.7910 C.3   197  CYS197      0.1712
    149  C         46.2310   -9.3710   24.8510 C.2   197  CYS197      0.2296
    150  O         46.4210  -10.5160   25.2190 O.2   197  CYS197     -0.2864
    151  CB        46.7420   -7.9210   26.7660 C.3   197  CYS197      0.0983
    152  SG        46.1280   -6.7230   27.9700 S.3   197  CYS197     -0.0798
    153  N         40.6130   -9.8500   19.0740 N.3   202  LYS202     -0.1231
    154  CA        40.1950   -8.8700   20.1200 C.3   202  LYS202      0.1678
    155  C         41.2640   -7.7860   20.1180 C.2   202  LYS202      0.2434
    156  O         42.0660   -7.7060   21.0430 O.2   202  LYS202     -0.2733
    157  CB        40.1170   -9.5690   21.5030 C.3   202  LYS202      0.0284
    158  CG        38.9770  -10.6200   21.5420 C.3   202  LYS202      0.0035
    159  CD        37.5960   -9.9030   21.3580 C.3   202  LYS202      0.0206
    160  CE        36.4820  -10.9740   21.2810 C.3   202  LYS202      0.1093
    161  NZ        35.1740  -10.3190   21.0010 N.3   202  LYS202     -0.1314
    162  N         41.3130   -6.9590   19.1070 N.am  203  PRO203     -0.2718
    163  CA        42.2460   -5.8160   19.0250 C.3   203  PRO203      0.1535
    164  C         42.0520   -4.7440   20.1120 C.2   203  PRO203      0.2599
    165  O         41.1090   -4.7680   20.8830 O.2   203  PRO203     -0.2715
    166  CB        42.0240   -5.2830   17.5940 C.3   203  PRO203      0.0310
    167  CG        40.5510   -5.6180   17.3300 C.3   203  PRO203      0.0237
    168  CD        40.4480   -7.0390   17.9030 C.3   203  PRO203      0.0939
    169  N         42.9260   -3.7860   20.1820 N.am  204  GLY204     -0.1941
    170  CA        42.7770   -2.7380   21.2030 C.3   204  GLY204      0.2014
    171  C         41.8510   -1.7020   20.6180 C.2   204  GLY204      0.2639
    172  O         41.7550   -1.6110   19.4030 O.2   204  GLY204     -0.2714
    173  N         41.1930   -0.9460   21.4600 N.am  205  VAL205     -0.1963
    174  CA        40.2540    0.1150   21.0550 C.3   205  VAL205      0.1727
    175  C         40.8810    1.3390   21.6410 C.2   205  VAL205      0.2616
    176  O         41.3300    1.3970   22.7880 O.2   205  VAL205     -0.2715
    177  CB        38.8440   -0.1690   21.6440 C.3   205  VAL205      0.0290
    178  CG1       37.8860    0.8380   21.0480 C.3   205  VAL205      0.0023
    179  CG2       38.3820   -1.5590   21.2400 C.3   205  VAL205      0.0023
    180  N         40.8960    2.3340   20.8160 N.am  206  TYR206     -0.1974
    181  CA        41.4720    3.6530   21.0940 C.3   206  TYR206      0.1639
    182  C         40.4950    4.7830   20.9350 C.2   206  TYR206      0.2290
    183  O         39.5930    4.6630   20.1210 O.2   206  TYR206     -0.2864
    184  CB        42.7030    3.8100   20.1010 C.3   206  TYR206      0.0560
    185  CG        43.6400    2.5990   20.3050 C.ar  206  TYR206     -0.0198
    186  CD1       44.6160    2.6890   21.2790 C.ar  206  TYR206     -0.0009
    187  CD2       43.5260    1.4250   19.5870 C.ar  206  TYR206     -0.0009
    188  CE1       45.4550    1.6260   21.5300 C.ar  206  TYR206      0.0417
    189  CE2       44.3740    0.3510   19.8380 C.ar  206  TYR206      0.0417
    190  CZ        45.3470    0.4570   20.8200 C.ar  206  TYR206      0.1957
    191  OH        46.1890   -0.6060   21.0650 O.3   206  TYR206     -0.2866
@<TRIPOS>BOND
     1   167   166    1
     2   167   168    1
     3   166   163    1
     4   168   162    1
     5   163   162    1
     6   163   164    1
     7   153   154    1
     8   162   155   am
     9   172   171    2
    10   187   189   ar
    11   187   185   ar
    12   189   190   ar
    13   184   185    1
    14   184   181    1
    15   164   169   am
    16   164   165    2
    17   155   154    1
    18   155   156    2
    19   154   157    1
    20   183   182    2
    21   169   170    1
    22   185   186   ar
    23   171   170    1
    24   171   173   am
    25   180   181    1
    26   180   175   am
    27   190   191    1
    28   190   188   ar
    29   182   181    1
    30   161   160    1
    31   178   177    1
    32   174   173    1
    33   174   175    1
    34   174   177    1
    35    67    68    1
    36   179   177    1
    37   186   188   ar
    38   160   159    1
    39   159   158    1
    40    68    71    1
    41    68    69    1
    42   157   158    1
    43    74    72   ar
    44   175   176    2
    45    71    72    1
    46    72    73   ar
    47    69    75   am
    48    69    70    2
    49    75    76    1
    50   130   132   ar
    51   130   128   ar
    52   132   131   ar
    53    80    79    1
    54    79    76    1
    55    76    77    1
    56   128   127   ar
    57   128   126   ar
    58   122   121    2
    59   131   129   ar
    60   106   107    1
    61   127   125   ar
    62   112   110    1
    63   107   110    1
    64   107   108    1
    65   149   150    2
    66   149   148    1
    67   134   135    1
    68   134   133    1
    69   142   141    1
    70    78    77    2
    71   126   129   ar
    72   126   124   ar
    73   141   138    1
    74   140   139    2
    75   137   135   am
    76   137   138    1
    77   117   118    1
    78   117   114    1
    79   125   124   ar
    80    77    81   am
    81   113   108   am
    82   113   114    1
    83   110   111    1
    84   121   133   am
    85   121   120    1
    86   108   109    2
    87   124   123    1
    88   135   136    2
    89   119   120    1
    90   119   115   am
    91   148   147    1
    92   148   151    1
    93   138   139    1
    94   139   143   am
    95   114   115    1
    96   120   123    1
    97   146   145    2
    98    81    82    1
    99   147   145   am
   100   115   116    2
   101   151   152    1
   102   145   144    1
   103   143   144    1
   104    82    85    1
   105    82    83    1
   106    85    86    1
   107   152    86    1
   108    84    83    2
   109    83    87   am
   110   100   101    1
   111   101   102    1
   112   101   104    1
   113   102   103    2
   114    87    88    1
   115    38    36   ar
   116    38    39   ar
   117    36    35   ar
   118   104   105    1
   119    98    99    2
   120    98    97    1
   121    88    89    1
   122    88    91    1
   123    39    37   ar
   124    90    89    2
   125    89    96   am
   126    35    37   ar
   127    35    34    1
   128    96    97    1
   129    30    31    1
   130    91    92    1
   131    45    29    1
   132    45    44    1
   133    26    27    2
   134    26    25    1
   135    34    31    1
   136    25    28    1
   137    25    24    1
   138    28    29    1
   139    31    32    1
   140    44    41    1
   141    92    93    1
   142    40    32   am
   143    40    41    1
   144    32    33    2
   145    94    93    2
   146    41    42    1
   147    24    15   am
   148    93    95   am
   149    16    15    2
   150    15    14    1
   151    42    46   am
   152    42    43    2
   153    46    47    1
   154    50    47    1
   155    50    51    1
   156    47    48    1
   157    14    13    1
   158    14    17    1
   159    22    20   ar
   160    22    23   ar
   161    20    18   ar
   162    53    51   ar
   163    53    55   ar
   164    51    52   ar
   165    23    21   ar
   166    18    17    1
   167    18    19   ar
   168    48    49    2
   169    48    58   am
   170    21    19   ar
   171    55    56   ar
   172    52    54   ar
   173    58    59    1
   174    56    54   ar
   175    56    57    1
   176     4     3    2
   177     3     2    1
   178    61    60    2
   179    63    62    1
   180    63    64    1
   181    59    62    1
   182    59    60    1
   183    65    64    1
   184    65    66    1
   185     8    10   ar
   186     8     6   ar
   187    10    11   ar
   188     2     5    1
   189     2     1    1
   190     5     6    1
   191     6     7   ar
   192    11    12    1
   193    11     9   ar
   194     7     9   ar
