@<TRIPOS>MOLECULE
tmp/1o2wA00.pdb
 128 125 0 0 0
SMALL
GASTEIGER

@<TRIPOS>ATOM
      1  N         49.5540    4.8810   34.4710 N.3    25  CYS25      -0.1235
      2  CA        49.0090    5.1550   33.1320 C.3    25  CYS25       0.1677
      3  C         50.0040    5.9860   32.3590 C.2    25  CYS25       0.2270
      4  O         50.9180    6.5260   32.9510 O.2    25  CYS25      -0.2867
      5  CB        47.6840    5.9490   33.2280 C.3    25  CYS25       0.0956
      6  SG        46.1140    5.0070   33.3870 S.3    25  CYS25      -0.0801
      7  N         39.6500    7.3600   32.1130 N.3    40  HIS40      -0.1241
      8  CA        39.6180    6.2840   33.1360 C.3    40  HIS40       0.1621
      9  C         40.9230    6.1650   33.9280 C.2    40  HIS40       0.2264
     10  O         41.0250    5.3160   34.7910 O.2    40  HIS40      -0.2867
     11  CB        39.2560    4.9080   32.5080 C.3    40  HIS40       0.0745
     12  CG        40.3050    4.1060   31.7660 C.ar   40  HIS40       0.0817
     13  ND1       40.5070    4.0690   30.4720 N.ar   40  HIS40      -0.2268
     14  CD2       41.2450    3.2280   32.3170 C.ar   40  HIS40       0.1154
     15  CE1       41.4840    3.2430   30.1940 C.ar   40  HIS40       0.1986
     16  NE2       41.9370    2.7290   31.3020 N.ar   40  HIS40      -0.2212
     17  N         49.9310   -6.1710   21.0570 N.3   171  ASP171     -0.1225
     18  CA        48.8040   -5.2650   21.4440 C.3   171  ASP171      0.1805
     19  C         49.2690   -4.4010   22.6140 C.2   171  ASP171      0.2598
     20  O         50.3520   -4.6110   23.1470 O.2   171  ASP171     -0.2718
     21  CB        47.6410   -6.1560   21.9120 C.3   171  ASP171      0.1424
     22  CG        46.2630   -5.4860   22.1330 C.2   171  ASP171      0.3668
     23  OD1       45.4450   -6.1690   22.7390 O.co2 171  ASP171     -0.2456
     24  OD2       46.1070   -4.3690   21.6930 O.co2 171  ASP171     -0.2456
     25  N         48.4510   -3.4470   22.9850 N.am  172  SER172     -0.1938
     26  CA        48.7900   -2.6030   24.1460 C.3   172  SER172      0.2055
     27  C         48.0570   -3.4390   25.2700 C.2   172  SER172      0.2643
     28  O         47.3060   -4.3820   25.0140 O.2   172  SER172     -0.2714
     29  CB        48.2180   -1.1550   23.9710 C.3   172  SER172      0.2130
     30  OG        46.8310   -1.2290   23.6070 O.3   172  SER172     -0.2179
     31  N         48.2750   -3.0780   26.4910 N.am  173  CYS173     -0.1953
     32  CA        47.6600   -3.7970   27.6320 C.3   173  CYS173      0.1843
     33  C         47.5340   -2.8450   28.8400 C.2   173  CYS173      0.2625
     34  O         47.8910   -1.6760   28.7440 O.2   173  CYS173     -0.2714
     35  CB        48.5460   -4.9920   27.9430 C.3   173  CYS173      0.0997
     36  SG        47.7980   -6.2940   28.9620 S.3   173  CYS173     -0.0797
     37  N         47.0500   -3.3840   29.9230 N.am  174  GLN174     -0.1963
     38  CA        46.8660   -2.5630   31.1620 C.3   174  GLN174      0.1733
     39  C         48.2270   -1.9180   31.4890 C.2   174  GLN174      0.2616
     40  O         49.2730   -2.5560   31.4000 O.2   174  GLN174     -0.2715
     41  CB        46.3880   -3.5130   32.2600 C.3   174  GLN174      0.0408
     42  CG        46.1170   -2.8130   33.6340 C.3   174  GLN174      0.0908
     43  CD        45.6250   -3.9160   34.5870 C.2   174  GLN174      0.2608
     44  OE1       45.9250   -5.0640   34.3260 O.2   174  GLN174     -0.2717
     45  NE2       44.9230   -3.6480   35.6370 N.am  174  GLN174     -0.0878
     46  N         48.1720   -0.6770   31.8420 N.am  175  GLY175     -0.1955
     47  CA        49.4230    0.0520   32.1850 C.3   175  GLY175      0.1869
     48  C         49.7870    0.9770   31.0560 C.2   175  GLY175      0.2309
     49  O         50.4940    1.9480   31.2420 O.2   175  GLY175     -0.2863
     50  N         47.3160    2.3170   29.1820 N.3   177  SER177     -0.1217
     51  CA        46.1340    3.2420   29.0990 C.3   177  SER177      0.1889
     52  C         46.5500    4.6920   29.2160 C.2   177  SER177      0.2288
     53  O         47.3930    4.9660   30.0490 O.2   177  SER177     -0.2866
     54  CB        45.1430    2.9780   30.2340 C.3   177  SER177      0.2089
     55  OG        44.6030    1.6650   30.0520 O.3   177  SER177     -0.2183
     56  N         45.4120    5.1830   24.1650 N.3   191  VAL191     -0.1231
     57  CA        45.1950    3.7660   24.5470 C.3   191  VAL191      0.1692
     58  C         43.9730    3.7750   25.5040 C.2   191  VAL191      0.2593
     59  O         43.9990    4.4580   26.5250 O.2   191  VAL191     -0.2718
     60  CB        46.4590    3.2210   25.2640 C.3   191  VAL191      0.0266
     61  CG1       46.2340    1.7610   25.6770 C.3   191  VAL191      0.0020
     62  CG2       47.6970    3.3650   24.3600 C.3   191  VAL191      0.0020
     63  N         42.9680    3.0060   25.1500 N.am  192  SER192     -0.1938
     64  CA        41.7610    2.9840   26.0130 C.3   192  SER192      0.2055
     65  C         41.3930    1.5980   26.5410 C.2   192  SER192      0.2643
     66  O         41.5560    1.3500   27.7240 O.2   192  SER192     -0.2714
     67  CB        40.5940    3.6480   25.1600 C.3   192  SER192      0.2130
     68  OG        39.3900    3.7010   25.9390 O.3   192  SER192     -0.2179
     69  N         40.9240    0.6940   25.7060 N.am  193  TRP193     -0.1959
     70  CA        40.5470   -0.6470   26.2510 C.3   193  TRP193      0.1771
     71  C         40.6820   -1.7460   25.2360 C.2   193  TRP193      0.2620
     72  O         41.1540   -1.5140   24.1360 O.2   193  TRP193     -0.2715
     73  CB        39.0590   -0.5930   26.7560 C.3   193  TRP193      0.0590
     74  CG        38.0180   -0.2110   25.6640 C.ar  193  TRP193      0.0006
     75  CD1       37.7400    1.0430   25.2280 C.ar  193  TRP193      0.0946
     76  CD2       37.1960   -1.0710   25.0020 C.ar  193  TRP193      0.0152
     77  NE1       36.7680    0.8760   24.3380 N.ar  193  TRP193     -0.2442
     78  CE2       36.3650   -0.3560   24.1270 C.ar  193  TRP193      0.0810
     79  CE3       37.0970   -2.4540   25.0820 C.ar  193  TRP193      0.0012
     80  CZ2       35.4200   -1.0180   23.3220 C.ar  193  TRP193      0.0191
     81  CZ3       36.1530   -3.1360   24.2740 C.ar  193  TRP193      0.0001
     82  CH2       35.3210   -2.4100   23.4020 C.ar  193  TRP193      0.0015
     83  N         40.2940   -2.9220   25.6260 N.am  194  GLY194     -0.1954
     84  CA        40.3460   -4.1090   24.7350 C.3   194  GLY194      0.1869
     85  C         39.8850   -5.2970   25.5860 C.2   194  GLY194      0.2309
     86  O         39.7110   -5.1190   26.7730 O.2   194  GLY194     -0.2863
     87  N         41.0650   -8.4080   27.1520 N.3   196  GLY196     -0.1210
     88  CA        42.3360   -9.1260   27.4730 C.3   196  GLY196      0.1956
     89  C         43.4010   -8.3260   26.6870 C.2   196  GLY196      0.2612
     90  O         43.1770   -7.1710   26.3190 O.2   196  GLY196     -0.2717
     91  N         44.5160   -8.9380   26.4450 N.am  197  CYS197     -0.1970
     92  CA        45.6030   -8.2920   25.6920 C.3   197  CYS197      0.1712
     93  C         46.1480   -9.3480   24.7680 C.2   197  CYS197      0.2296
     94  O         46.3720  -10.4690   25.1780 O.2   197  CYS197     -0.2864
     95  CB        46.6940   -7.8230   26.6370 C.3   197  CYS197      0.0983
     96  SG        46.0780   -6.7260   27.9440 S.3   197  CYS197     -0.0798
     97  N         40.6020   -9.8170   18.8870 N.3   202  LYS202     -0.1245
     98  CA        40.2020   -8.8270   19.9330 C.3   202  LYS202      0.1561
     99  C         41.2700   -7.7190   19.9560 C.2   202  LYS202      0.2260
    100  O         42.0630   -7.6360   20.8900 O.2   202  LYS202     -0.2867
    101  CB        40.1370   -9.5060   21.3100 C.3   202  LYS202      0.0271
    102  CG        38.9920  -10.5510   21.3940 C.3   202  LYS202      0.0035
    103  CD        37.5990   -9.8500   21.2210 C.3   202  LYS202      0.0206
    104  CE        36.4640  -10.8910   21.3940 C.3   202  LYS202      0.1093
    105  NZ        35.1490  -10.2760   21.0680 N.3   202  LYS202     -0.1314
    106  N         43.0300   -3.8440   20.0220 N.3   204  GLY204     -0.1210
    107  CA        42.8880   -2.7710   21.0490 C.3   204  GLY204      0.1956
    108  C         41.9630   -1.7030   20.4640 C.2   204  GLY204      0.2612
    109  O         41.8700   -1.5510   19.2630 O.2   204  GLY204     -0.2717
    110  N         41.3240   -0.9970   21.3560 N.am  205  VAL205     -0.1965
    111  CA        40.3800    0.0900   21.0170 C.3   205  VAL205      0.1727
    112  C         41.0160    1.3430   21.6400 C.2   205  VAL205      0.2616
    113  O         41.4730    1.3400   22.7820 O.2   205  VAL205     -0.2715
    114  CB        38.9970   -0.2440   21.6410 C.3   205  VAL205      0.0290
    115  CG1       38.0230    0.7850   21.0960 C.3   205  VAL205      0.0023
    116  CG2       38.5290   -1.6430   21.1960 C.3   205  VAL205      0.0023
    117  N         40.9860    2.3510   20.8220 N.am  206  TYR206     -0.1974
    118  CA        41.5580    3.6850   21.1060 C.3   206  TYR206      0.1639
    119  C         40.6110    4.8410   20.9280 C.2   206  TYR206      0.2290
    120  O         39.7560    4.7760   20.0650 O.2   206  TYR206     -0.2864
    121  CB        42.8020    3.8750   20.1370 C.3   206  TYR206      0.0560
    122  CG        43.7800    2.6910   20.2930 C.ar  206  TYR206     -0.0198
    123  CD1       44.8110    2.7990   21.2040 C.ar  206  TYR206     -0.0009
    124  CD2       43.6340    1.4890   19.5810 C.ar  206  TYR206     -0.0009
    125  CE1       45.6700    1.7440   21.4150 C.ar  206  TYR206      0.0417
    126  CE2       44.5030    0.4240   19.7930 C.ar  206  TYR206      0.0417
    127  CZ        45.5380    0.5490   20.7270 C.ar  206  TYR206      0.1957
    128  OH        46.3960   -0.5080   20.9700 O.3   206  TYR206     -0.2866
@<TRIPOS>BOND
     1    97    98    1
     2   109   108    2
     3   124   126   ar
     4   124   122   ar
     5   126   127   ar
     6    98    99    1
     7    98   101    1
     8    99   100    2
     9   106   107    1
    10   120   119    2
    11   121   122    1
    12   121   118    1
    13   122   123   ar
    14   108   107    1
    15   108   110   am
    16   127   128    1
    17   127   125   ar
    18   117   118    1
    19   117   112   am
    20   119   118    1
    21   111   110    1
    22   111   112    1
    23   111   114    1
    24    17    18    1
    25   105   104    1
    26   115   114    1
    27   116   114    1
    28   123   125   ar
    29   103   102    1
    30   103   104    1
    31   101   102    1
    32    18    21    1
    33    18    19    1
    34   112   113    2
    35    24    22   ar
    36    21    22    1
    37    22    23   ar
    38    19    25   am
    39    19    20    2
    40    25    26    1
    41    80    82   ar
    42    80    78   ar
    43    82    81   ar
    44    30    29    1
    45    29    26    1
    46    78    77   ar
    47    78    76   ar
    48    72    71    2
    49    26    27    1
    50    56    57    1
    51    81    79   ar
    52    77    75   ar
    53    62    60    1
    54    57    60    1
    55    57    58    1
    56    84    85    1
    57    84    83    1
    58    93    94    2
    59    93    92    1
    60    76    79   ar
    61    76    74   ar
    62    28    27    2
    63    63    58   am
    64    63    64    1
    65    67    68    1
    66    67    64    1
    67    75    74   ar
    68    71    83   am
    69    71    70    1
    70    60    61    1
    71    27    31   am
    72    58    59    2
    73    85    86    2
    74    74    73    1
    75    92    91    1
    76    92    95    1
    77    69    70    1
    78    69    65   am
    79    64    65    1
    80    70    73    1
    81    90    89    2
    82    91    89   am
    83    31    32    1
    84    65    66    2
    85    95    96    1
    86    89    88    1
    87    87    88    1
    88    32    35    1
    89    32    33    1
    90    35    36    1
    91    96    36    1
    92    34    33    2
    93    33    37   am
    94    51    50    1
    95    51    52    1
    96    51    54    1
    97    52    53    2
    98    37    38    1
    99    55    54    1
   100    15    13   ar
   101    15    16   ar
   102    13    12   ar
   103    48    49    2
   104    48    47    1
   105    38    39    1
   106    38    41    1
   107    16    14   ar
   108    40    39    2
   109    39    46   am
   110    12    14   ar
   111    12    11    1
   112    46    47    1
   113     7     8    1
   114    41    42    1
   115     3     4    2
   116     3     2    1
   117    11     8    1
   118     2     5    1
   119     2     1    1
   120     8     9    1
   121     5     6    1
   122    42    43    1
   123     9    10    2
   124    44    43    2
   125    43    45   am
