@<TRIPOS>MOLECULE
tmp/1o30A00.pdb
 160 159 0 0 0
SMALL
GASTEIGER

@<TRIPOS>ATOM
      1  N         50.9090    4.2220   36.7480 N.3    24  PHE24      -0.1227
      2  CA        49.5670    3.6220   36.5770 C.3    24  PHE24       0.1736
      3  C         49.0070    3.9320   35.1540 C.2    24  PHE24       0.2595
      4  O         48.1620    3.1800   34.7200 O.2    24  PHE24      -0.2718
      5  CB        48.5770    4.1210   37.6660 C.3    24  PHE24       0.0547
      6  CG        48.2660    5.5970   37.6630 C.ar   24  PHE24      -0.0202
      7  CD1       49.0290    6.4910   38.3870 C.ar   24  PHE24      -0.0042
      8  CD2       47.1920    6.0420   36.9460 C.ar   24  PHE24      -0.0042
      9  CE1       48.7120    7.8430   38.3920 C.ar   24  PHE24      -0.0003
     10  CE2       46.8820    7.3830   36.9550 C.ar   24  PHE24      -0.0003
     11  CZ        47.6290    8.2880   37.6690 C.ar   24  PHE24      -0.0000
     12  N         49.4280    4.9710   34.4760 N.am   25  CYS25      -0.1970
     13  CA        48.8900    5.2250   33.1150 C.3    25  CYS25       0.1712
     14  C         49.9130    5.9910   32.3490 C.2    25  CYS25       0.2296
     15  O         50.8530    6.4910   32.9380 O.2    25  CYS25      -0.2864
     16  CB        47.6090    6.0140   33.1940 C.3    25  CYS25       0.0983
     17  SG        46.0570    5.0660   33.4050 S.3    25  CYS25      -0.0798
     18  N         39.5600    7.3740   32.1400 N.3    40  HIS40      -0.1226
     19  CA        39.5380    6.3240   33.1730 C.3    40  HIS40       0.1752
     20  C         40.8520    6.2350   33.9560 C.2    40  HIS40       0.2596
     21  O         40.9590    5.4410   34.8680 O.2    40  HIS40      -0.2718
     22  CB        39.1760    4.9380   32.5380 C.3    40  HIS40       0.0759
     23  CG        40.2640    4.1250   31.8210 C.ar   40  HIS40       0.0818
     24  ND1       40.4210    4.0310   30.5230 N.ar   40  HIS40      -0.2268
     25  CD2       41.2750    3.3200   32.3730 C.ar   40  HIS40       0.1154
     26  CE1       41.4240    3.2490   30.2480 C.ar   40  HIS40       0.1986
     27  NE2       41.9430    2.8160   31.3570 N.ar   40  HIS40      -0.2212
     28  N         41.8120    7.0320   33.6090 N.am   41  CYS41      -0.1970
     29  CA        43.0960    7.0120   34.3470 C.3    41  CYS41       0.1712
     30  C         42.9920    8.1290   35.4200 C.2    41  CYS41       0.2296
     31  O         43.9030    8.3620   36.1860 O.2    41  CYS41      -0.2864
     32  CB        44.2360    7.3720   33.4480 C.3    41  CYS41       0.0983
     33  SG        44.7200    6.0860   32.2880 S.3    41  CYS41      -0.0798
     34  N         42.5680   10.2810   38.7600 N.3    43  LYS43      -0.1245
     35  CA        42.6800   10.0540   40.2310 C.3    43  LYS43       0.1561
     36  C         43.2930   11.3550   40.7370 C.2    43  LYS43       0.2260
     37  O         43.7440   12.1730   39.9560 O.2    43  LYS43      -0.2867
     38  CB        43.5940    8.8940   40.6060 C.3    43  LYS43       0.0271
     39  CG        45.0180    9.1530   40.2310 C.3    43  LYS43       0.0035
     40  CD        45.8840    8.1520   40.9580 C.3    43  LYS43       0.0206
     41  CE        45.5390    6.7310   40.5730 C.3    43  LYS43       0.1093
     42  NZ        46.5170    5.8340   41.2540 N.3    43  LYS43      -0.1314
     43  N         49.9030   -6.3030   21.0620 N.3   171  ASP171     -0.1225
     44  CA        48.7990   -5.3750   21.4610 C.3   171  ASP171      0.1805
     45  C         49.2690   -4.4460   22.6050 C.2   171  ASP171      0.2598
     46  O         50.3600   -4.5920   23.1350 O.2   171  ASP171     -0.2718
     47  CB        47.6430   -6.2540   21.9300 C.3   171  ASP171      0.1424
     48  CG        46.2870   -5.5750   22.0820 C.2   171  ASP171      0.3668
     49  OD1       45.4420   -6.2340   22.6610 O.co2 171  ASP171     -0.2456
     50  OD2       46.1310   -4.4590   21.6300 O.co2 171  ASP171     -0.2456
     51  N         48.4370   -3.5050   22.9650 N.am  172  SER172     -0.1938
     52  CA        48.7590   -2.5880   24.0660 C.3   172  SER172      0.2055
     53  C         48.0290   -3.3840   25.2130 C.2   172  SER172      0.2643
     54  O         47.3150   -4.3440   24.9510 O.2   172  SER172     -0.2714
     55  CB        48.1440   -1.1580   23.7870 C.3   172  SER172      0.2130
     56  OG        46.7620   -1.3150   23.4560 O.3   172  SER172     -0.2179
     57  N         48.1980   -2.9860   26.4420 N.am  173  CYS173     -0.1953
     58  CA        47.5630   -3.6950   27.5760 C.3   173  CYS173      0.1843
     59  C         47.4690   -2.7450   28.7600 C.2   173  CYS173      0.2625
     60  O         47.9290   -1.6140   28.6690 O.2   173  CYS173     -0.2714
     61  CB        48.4550   -4.9360   27.9010 C.3   173  CYS173      0.0997
     62  SG        47.7530   -6.2280   28.9550 S.3   173  CYS173     -0.0797
     63  N         46.9030   -3.2280   29.8300 N.am  174  GLN174     -0.1963
     64  CA        46.7250   -2.4240   31.0970 C.3   174  GLN174      0.1733
     65  C         48.0710   -1.7550   31.4250 C.2   174  GLN174      0.2616
     66  O         49.1160   -2.3900   31.3340 O.2   174  GLN174     -0.2715
     67  CB        46.3060   -3.3610   32.2320 C.3   174  GLN174      0.0408
     68  CG        46.1650   -2.6600   33.6070 C.3   174  GLN174      0.0908
     69  CD        45.8120   -3.7540   34.6200 C.2   174  GLN174      0.2608
     70  OE1       45.9910   -4.9240   34.3460 O.2   174  GLN174     -0.2717
     71  NE2       45.3270   -3.4450   35.7800 N.am  174  GLN174     -0.0878
     72  N         48.0300   -0.4880   31.7860 N.am  175  GLY175     -0.1955
     73  CA        49.3170    0.2160   32.1170 C.3   175  GLY175      0.1869
     74  C         49.7500    1.1170   30.9750 C.2   175  GLY175      0.2309
     75  O         50.4430    2.0960   31.1800 O.2   175  GLY175     -0.2863
     76  N         47.4110    2.2490   29.0920 N.3   177  SER177     -0.1217
     77  CA        46.1800    3.1080   29.1220 C.3   177  SER177      0.1889
     78  C         46.5370    4.6050   29.1920 C.2   177  SER177      0.2288
     79  O         47.4130    4.9530   29.9570 O.2   177  SER177     -0.2866
     80  CB        45.3360    2.7920   30.3810 C.3   177  SER177      0.2089
     81  OG        44.6410    1.5530   30.1720 O.3   177  SER177     -0.2183
     82  N         45.3040    5.0780   24.1990 N.3   191  VAL191     -0.1231
     83  CA        45.0800    3.6490   24.5760 C.3   191  VAL191      0.1692
     84  C         43.8710    3.6740   25.5420 C.2   191  VAL191      0.2593
     85  O         43.9120    4.3040   26.5920 O.2   191  VAL191     -0.2718
     86  CB        46.3670    3.1160   25.2570 C.3   191  VAL191      0.0266
     87  CG1       46.1500    1.6510   25.6230 C.3   191  VAL191      0.0020
     88  CG2       47.6120    3.2430   24.3300 C.3   191  VAL191      0.0020
     89  N         42.8310    2.9850   25.1780 N.am  192  SER192     -0.1938
     90  CA        41.6350    2.9810   26.0340 C.3   192  SER192      0.2055
     91  C         41.2900    1.5870   26.5420 C.2   192  SER192      0.2643
     92  O         41.5530    1.3230   27.7040 O.2   192  SER192     -0.2714
     93  CB        40.5080    3.6280   25.1760 C.3   192  SER192      0.2130
     94  OG        39.3050    3.6890   25.9400 O.3   192  SER192     -0.2179
     95  N         40.7370    0.7220   25.7250 N.am  193  TRP193     -0.1959
     96  CA        40.3860   -0.6510   26.2520 C.3   193  TRP193      0.1771
     97  C         40.5530   -1.7650   25.2370 C.2   193  TRP193      0.2620
     98  O         41.0250   -1.5510   24.1340 O.2   193  TRP193     -0.2715
     99  CB        38.9150   -0.6470   26.7470 C.3   193  TRP193      0.0590
    100  CG        37.9090   -0.2660   25.6770 C.ar  193  TRP193      0.0006
    101  CD1       37.6560    1.0020   25.2510 C.ar  193  TRP193      0.0946
    102  CD2       37.0870   -1.1080   25.0280 C.ar  193  TRP193      0.0152
    103  NE1       36.6850    0.8470   24.3630 N.ar  193  TRP193     -0.2442
    104  CE2       36.2640   -0.3850   24.1480 C.ar  193  TRP193      0.0810
    105  CE3       36.9670   -2.4900   25.1170 C.ar  193  TRP193      0.0012
    106  CZ2       35.3060   -1.0350   23.3480 C.ar  193  TRP193      0.0191
    107  CZ3       36.0150   -3.1500   24.3210 C.ar  193  TRP193      0.0001
    108  CH2       35.1860   -2.4270   23.4380 C.ar  193  TRP193      0.0015
    109  N         40.1720   -2.9330   25.6490 N.am  194  GLY194     -0.1940
    110  CA        40.2520   -4.1280   24.7750 C.3   194  GLY194      0.2014
    111  C         39.8540   -5.3190   25.6410 C.2   194  GLY194      0.2640
    112  O         39.7410   -5.1690   26.8400 O.2   194  GLY194     -0.2714
    113  N         39.6470   -6.4520   25.0230 N.am  195  SER195     -0.1935
    114  CA        39.2620   -7.7070   25.7700 C.3   195  SER195      0.2055
    115  C         40.5960   -8.4470   25.9690 C.2   195  SER195      0.2644
    116  O         41.1410   -8.9830   25.0090 O.2   195  SER195     -0.2714
    117  CB        38.3160   -8.5430   24.8790 C.3   195  SER195      0.2130
    118  OG        37.2330   -8.9550   25.6970 O.3   195  SER195     -0.2179
    119  N         41.0730   -8.4270   27.1910 N.am  196  GLY196     -0.1939
    120  CA        42.3570   -9.0990   27.5290 C.3   196  GLY196      0.2014
    121  C         43.3880   -8.3090   26.7570 C.2   196  GLY196      0.2639
    122  O         43.1380   -7.1630   26.4150 O.2   196  GLY196     -0.2714
    123  N         44.4950   -8.9150   26.5070 N.am  197  CYS197     -0.1967
    124  CA        45.5580   -8.2550   25.7580 C.3   197  CYS197      0.1712
    125  C         46.1420   -9.3010   24.8500 C.2   197  CYS197      0.2296
    126  O         46.4230  -10.4000   25.2860 O.2   197  CYS197     -0.2864
    127  CB        46.6230   -7.7610   26.7090 C.3   197  CYS197      0.0983
    128  SG        46.0220   -6.6290   27.9850 S.3   197  CYS197     -0.0798
    129  N         40.5300   -9.8190   19.0090 N.3   202  LYS202     -0.1245
    130  CA        40.1330   -8.8150   20.0570 C.3   202  LYS202      0.1561
    131  C         41.2410   -7.7320   20.0750 C.2   202  LYS202      0.2260
    132  O         42.0730   -7.6890   20.9790 O.2   202  LYS202     -0.2867
    133  CB        40.0400   -9.4930   21.4380 C.3   202  LYS202      0.0271
    134  CG        38.8990  -10.5440   21.4550 C.3   202  LYS202      0.0035
    135  CD        37.5240   -9.8540   21.2560 C.3   202  LYS202      0.0206
    136  CE        36.4170  -10.9090   21.3380 C.3   202  LYS202      0.1093
    137  NZ        35.1150  -10.2780   21.0120 N.3   202  LYS202     -0.1314
    138  N         42.9610   -3.7890   20.0980 N.3   204  GLY204     -0.1210
    139  CA        42.8490   -2.7010   21.0870 C.3   204  GLY204      0.1956
    140  C         41.9000   -1.6880   20.4770 C.2   204  GLY204      0.2612
    141  O         41.8180   -1.5630   19.2620 O.2   204  GLY204     -0.2717
    142  N         41.2070   -1.0060   21.3610 N.am  205  VAL205     -0.1965
    143  CA        40.2310    0.0480   20.9840 C.3   205  VAL205      0.1727
    144  C         40.8660    1.3020   21.5900 C.2   205  VAL205      0.2616
    145  O         41.3190    1.3630   22.7270 O.2   205  VAL205     -0.2715
    146  CB        38.8870   -0.2610   21.6010 C.3   205  VAL205      0.0290
    147  CG1       37.8800    0.7280   21.0950 C.3   205  VAL205      0.0023
    148  CG2       38.4270   -1.6420   21.1320 C.3   205  VAL205      0.0023
    149  N         40.8740    2.2830   20.7640 N.am  206  TYR206     -0.1974
    150  CA        41.4570    3.6280   21.0630 C.3   206  TYR206      0.1639
    151  C         40.4990    4.7960   20.9140 C.2   206  TYR206      0.2290
    152  O         39.5820    4.7410   20.1090 O.2   206  TYR206     -0.2864
    153  CB        42.6800    3.8080   20.0890 C.3   206  TYR206      0.0560
    154  CG        43.6580    2.6450   20.2770 C.ar  206  TYR206     -0.0198
    155  CD1       44.6970    2.7600   21.1810 C.ar  206  TYR206     -0.0009
    156  CD2       43.5200    1.4400   19.5860 C.ar  206  TYR206     -0.0009
    157  CE1       45.5660    1.7110   21.3910 C.ar  206  TYR206      0.0417
    158  CE2       44.3970    0.3870   19.7990 C.ar  206  TYR206      0.0417
    159  CZ        45.4330    0.5140   20.7090 C.ar  206  TYR206      0.1957
    160  OH        46.3130   -0.5310   20.9440 O.3   206  TYR206     -0.2866
@<TRIPOS>BOND
     1   129   130    1
     2   141   140    2
     3   156   158   ar
     4   156   154   ar
     5   158   159   ar
     6   130   131    1
     7   130   133    1
     8   131   132    2
     9   153   154    1
    10   153   150    1
    11   138   139    1
    12   152   151    2
    13   154   155   ar
    14   140   139    1
    15   140   142   am
    16   159   160    1
    17   159   157   ar
    18   149   150    1
    19   149   144   am
    20   151   150    1
    21   143   142    1
    22   143   144    1
    23   143   146    1
    24   137   136    1
    25    43    44    1
    26   147   146    1
    27   148   146    1
    28   155   157   ar
    29   135   136    1
    30   135   134    1
    31   133   134    1
    32    44    47    1
    33    44    45    1
    34   144   145    2
    35    50    48   ar
    36    47    48    1
    37    48    49   ar
    38    45    51   am
    39    45    46    2
    40    51    52    1
    41   106   108   ar
    42   106   104   ar
    43   108   107   ar
    44    56    55    1
    45    55    52    1
    46    52    53    1
    47    98    97    2
    48   104   103   ar
    49   104   102   ar
    50    82    83    1
    51   107   105   ar
    52    88    86    1
    53   103   101   ar
    54    83    86    1
    55    83    84    1
    56   110   111    1
    57   110   109    1
    58   125   126    2
    59   125   124    1
    60   117   118    1
    61   117   114    1
    62    54    53    2
    63   116   115    2
    64   113   111   am
    65   113   114    1
    66   102   105   ar
    67   102   100   ar
    68    93    94    1
    69    93    90    1
    70    89    84   am
    71    89    90    1
    72    53    57   am
    73    97   109   am
    74    97    96    1
    75   101   100   ar
    76    86    87    1
    77    84    85    2
    78   111   112    2
    79   100    99    1
    80    95    96    1
    81    95    91   am
    82   124   123    1
    83   124   127    1
    84   114   115    1
    85   115   119   am
    86    90    91    1
    87    96    99    1
    88   122   121    2
    89    57    58    1
    90   123   121   am
    91    91    92    2
    92   127   128    1
    93   121   120    1
    94   119   120    1
    95    58    61    1
    96    58    59    1
    97    61    62    1
    98   128    62    1
    99    60    59    2
   100    59    63   am
   101    76    77    1
   102    77    78    1
   103    77    80    1
   104    78    79    2
   105    63    64    1
   106    81    80    1
   107    26    24   ar
   108    26    27   ar
   109    24    23   ar
   110    74    75    2
   111    74    73    1
   112    64    65    1
   113    64    67    1
   114    66    65    2
   115    27    25   ar
   116    65    72   am
   117    72    73    1
   118    23    25   ar
   119    23    22    1
   120    18    19    1
   121    67    68    1
   122    33    17    1
   123    33    32    1
   124    14    15    2
   125    14    13    1
   126    22    19    1
   127    13    16    1
   128    13    12    1
   129    19    20    1
   130    16    17    1
   131    32    29    1
   132    68    69    1
   133    28    20   am
   134    28    29    1
   135    20    21    2
   136    70    69    2
   137    29    30    1
   138    12     3   am
   139    69    71   am
   140     4     3    2
   141     3     2    1
   142    30    31    2
   143     2     1    1
   144     2     5    1
   145     8    10   ar
   146     8     6   ar
   147    10    11   ar
   148     6     5    1
   149     6     7   ar
   150    11     9   ar
   151     7     9   ar
   152    34    35    1
   153    37    36    2
   154    39    38    1
   155    39    40    1
   156    35    38    1
   157    35    36    1
   158    41    40    1
   159    41    42    1
