@<TRIPOS>MOLECULE
tmp/1o31A00.pdb
 135 134 0 0 0
SMALL
GASTEIGER

@<TRIPOS>ATOM
      1  N         49.8060    4.5740   34.5810 N.3    25  CYS25      -0.1235
      2  CA        49.2570    4.8310   33.2080 C.3    25  CYS25       0.1677
      3  C         50.2930    5.6040   32.4170 C.2    25  CYS25       0.2270
      4  O         51.2850    6.0320   32.9940 O.2    25  CYS25      -0.2867
      5  CB        47.9880    5.6780   33.2720 C.3    25  CYS25       0.0956
      6  SG        46.3940    4.8050   33.5490 S.3    25  CYS25      -0.0801
      7  N         39.9610    7.1350   32.2650 N.3    40  HIS40      -0.1241
      8  CA        39.9480    6.0600   33.2870 C.3    40  HIS40       0.1621
      9  C         41.2810    6.0280   34.0670 C.2    40  HIS40       0.2264
     10  O         41.3790    5.2450   34.9930 O.2    40  HIS40      -0.2867
     11  CB        39.6240    4.6840   32.5940 C.3    40  HIS40       0.0745
     12  CG        40.6900    4.0480   31.7530 C.ar   40  HIS40       0.0817
     13  ND1       40.8250    4.0780   30.4800 N.ar   40  HIS40      -0.2268
     14  CD2       41.7360    3.3040   32.1940 C.ar   40  HIS40       0.1154
     15  CE1       41.8890    3.3950   30.1780 C.ar   40  HIS40       0.1986
     16  NE2       42.5000    2.8840   31.2200 N.ar   40  HIS40      -0.2212
     17  N         50.0990   -6.0620   20.6480 N.3   171  ASP171     -0.1225
     18  CA        48.9740   -5.1700   21.0810 C.3   171  ASP171      0.1805
     19  C         49.4300   -4.3210   22.3060 C.2   171  ASP171      0.2598
     20  O         50.5380   -4.5050   22.8160 O.2   171  ASP171     -0.2718
     21  CB        47.8490   -6.0650   21.5160 C.3   171  ASP171      0.1424
     22  CG        46.5240   -5.4090   21.8260 C.2   171  ASP171      0.3668
     23  OD1       45.6970   -6.1130   22.3530 O.co2 171  ASP171     -0.2456
     24  OD2       46.2330   -4.2450   21.5840 O.co2 171  ASP171     -0.2456
     25  N         48.6080   -3.4060   22.7690 N.am  172  SER172     -0.1938
     26  CA        48.9950   -2.6260   23.9460 C.3   172  SER172      0.2055
     27  C         48.2960   -3.4770   25.0460 C.2   172  SER172      0.2643
     28  O         47.4900   -4.3590   24.7510 O.2   172  SER172     -0.2714
     29  CB        48.4490   -1.1970   23.8430 C.3   172  SER172      0.2130
     30  OG        47.0550   -1.2160   23.5720 O.3   172  SER172     -0.2179
     31  N         48.5540   -3.2430   26.3020 N.am  173  CYS173     -0.1953
     32  CA        47.9550   -4.0140   27.4020 C.3   173  CYS173      0.1843
     33  C         47.8690   -3.1080   28.6420 C.2   173  CYS173      0.2625
     34  O         48.1630   -1.9190   28.5510 O.2   173  CYS173     -0.2714
     35  CB        48.8740   -5.2210   27.5970 C.3   173  CYS173      0.0997
     36  SG        48.1770   -6.5920   28.5310 S.3   173  CYS173     -0.0797
     37  N         47.4870   -3.6650   29.7580 N.am  174  GLN174     -0.1963
     38  CA        47.3540   -2.9310   31.0390 C.3   174  GLN174      0.1733
     39  C         48.6620   -2.2490   31.3710 C.2   174  GLN174      0.2616
     40  O         49.7280   -2.8360   31.2270 O.2   174  GLN174     -0.2715
     41  CB        46.9430   -3.9550   32.0890 C.3   174  GLN174      0.0408
     42  CG        47.0420   -3.4040   33.5100 C.3   174  GLN174      0.0908
     43  CD        46.3780   -4.4650   34.3500 C.2   174  GLN174      0.2608
     44  OE1       46.8580   -5.5800   34.3970 O.2   174  GLN174     -0.2717
     45  NE2       45.3060   -4.1900   35.0070 N.am  174  GLN174     -0.0878
     46  N         48.6180   -1.0230   31.8150 N.am  175  GLY175     -0.1955
     47  CA        49.8730   -0.2750   32.1600 C.3   175  GLY175      0.1869
     48  C         50.1270    0.6820   31.0010 C.2   175  GLY175      0.2309
     49  O         50.7810    1.6960   31.1500 O.2   175  GLY175     -0.2863
     50  N         47.5680    2.0770   29.1910 N.3   177  SER177     -0.1217
     51  CA        46.4220    3.0270   29.1900 C.3   177  SER177      0.1889
     52  C         46.8180    4.4920   29.3350 C.2   177  SER177      0.2288
     53  O         47.6740    4.8060   30.1350 O.2   177  SER177     -0.2866
     54  CB        45.4560    2.6860   30.3620 C.3   177  SER177      0.2089
     55  OG        45.1430    1.3060   30.1810 O.3   177  SER177     -0.2183
     56  N         45.6260    5.1250   24.3240 N.3   191  VAL191     -0.1231
     57  CA        45.3830    3.6910   24.6550 C.3   191  VAL191      0.1692
     58  C         44.1830    3.6620   25.6180 C.2   191  VAL191      0.2593
     59  O         44.2840    4.2110   26.7060 O.2   191  VAL191     -0.2718
     60  CB        46.6180    3.1110   25.3460 C.3   191  VAL191      0.0266
     61  CG1       46.3750    1.6180   25.6490 C.3   191  VAL191      0.0020
     62  CG2       47.8860    3.3060   24.4780 C.3   191  VAL191      0.0020
     63  N         43.1030    3.0270   25.2410 N.am  192  SER192     -0.1938
     64  CA        41.8850    2.9600   26.0950 C.3   192  SER192      0.2055
     65  C         41.5090    1.5510   26.5430 C.2   192  SER192      0.2643
     66  O         41.5930    1.2870   27.7340 O.2   192  SER192     -0.2714
     67  CB        40.7940    3.6280   25.2480 C.3   192  SER192      0.2130
     68  OG        39.6030    3.7310   26.0090 O.3   192  SER192     -0.2179
     69  N         41.1000    0.6330   25.6900 N.am  193  TRP193     -0.1959
     70  CA        40.7380   -0.7100   26.2110 C.3   193  TRP193      0.1771
     71  C         40.8980   -1.8080   25.2000 C.2   193  TRP193      0.2620
     72  O         41.4020   -1.5850   24.1100 O.2   193  TRP193     -0.2715
     73  CB        39.2830   -0.6550   26.6930 C.3   193  TRP193      0.0590
     74  CG        38.2040   -0.2950   25.6120 C.ar  193  TRP193      0.0006
     75  CD1       37.8320    0.9750   25.2230 C.ar  193  TRP193      0.0946
     76  CD2       37.3990   -1.1490   24.9140 C.ar  193  TRP193      0.0152
     77  NE1       36.8530    0.8870   24.3470 N.ar  193  TRP193     -0.2442
     78  CE2       36.5490   -0.3620   24.1200 C.ar  193  TRP193      0.0810
     79  CE3       37.2750   -2.5440   24.8600 C.ar  193  TRP193      0.0012
     80  CZ2       35.5940   -0.9540   23.2890 C.ar  193  TRP193      0.0191
     81  CZ3       36.3250   -3.1400   24.0330 C.ar  193  TRP193      0.0001
     82  CH2       35.4900   -2.3470   23.2530 C.ar  193  TRP193      0.0015
     83  N         40.5150   -3.0100   25.5120 N.am  194  GLY194     -0.1954
     84  CA        40.6300   -4.1390   24.5610 C.3   194  GLY194      0.1869
     85  C         40.1840   -5.3580   25.3330 C.2   194  GLY194      0.2309
     86  O         40.0370   -5.1960   26.5210 O.2   194  GLY194     -0.2863
     87  N         41.3540   -8.5080   26.8340 N.3   196  GLY196     -0.1210
     88  CA        42.6020   -9.2600   27.0780 C.3   196  GLY196      0.1956
     89  C         43.6740   -8.4950   26.3190 C.2   196  GLY196      0.2612
     90  O         43.5160   -7.3250   25.9610 O.2   196  GLY196     -0.2717
     91  N         44.7690   -9.1250   26.0710 N.am  197  CYS197     -0.1970
     92  CA        45.8630   -8.5020   25.3400 C.3   197  CYS197      0.1712
     93  C         46.3700   -9.4550   24.2990 C.2   197  CYS197      0.2296
     94  O         46.5630  -10.6300   24.5630 O.2   197  CYS197     -0.2864
     95  CB        46.9550   -8.1350   26.3430 C.3   197  CYS197      0.0983
     96  SG        46.4400   -6.9040   27.5730 S.3   197  CYS197     -0.0798
     97  N         40.8150   -9.6950   18.5930 N.3   202  LYS202     -0.1231
     98  CA        40.3690   -8.7230   19.6350 C.3   202  LYS202      0.1678
     99  C         41.4070   -7.6230   19.5790 C.2   202  LYS202      0.2434
    100  O         42.3270   -7.5950   20.3940 O.2   202  LYS202     -0.2733
    101  CB        40.3530   -9.3670   21.0450 C.3   202  LYS202      0.0284
    102  CG        39.2370  -10.4470   21.2060 C.3   202  LYS202      0.0035
    103  CD        37.8320   -9.8110   21.0180 C.3   202  LYS202      0.0206
    104  CE        36.7470  -10.8950   21.1060 C.3   202  LYS202      0.1093
    105  NZ        35.4330  -10.2570   20.8360 N.3   202  LYS202     -0.1314
    106  N         41.3230   -6.7180   18.6390 N.am  203  PRO203     -0.2718
    107  CA        42.3130   -5.6220   18.5040 C.3   203  PRO203      0.1535
    108  C         42.2060   -4.5770   19.6340 C.2   203  PRO203      0.2599
    109  O         41.2590   -4.5850   20.3940 O.2   203  PRO203     -0.2715
    110  CB        42.0040   -5.0640   17.1370 C.3   203  PRO203      0.0310
    111  CG        40.4670   -5.2410   17.0240 C.3   203  PRO203      0.0237
    112  CD        40.2720   -6.6470   17.5950 C.3   203  PRO203      0.0939
    113  N         43.1350   -3.6760   19.7610 N.am  204  GLY204     -0.1941
    114  CA        43.0650   -2.6470   20.8340 C.3   204  GLY204      0.2014
    115  C         42.1080   -1.5680   20.4190 C.2   204  GLY204      0.2639
    116  O         41.9670   -1.3350   19.2360 O.2   204  GLY204     -0.2714
    117  N         41.4600   -0.9240   21.3560 N.am  205  VAL205     -0.1963
    118  CA        40.5180    0.1460   21.0480 C.3   205  VAL205      0.1727
    119  C         41.2140    1.3700   21.6430 C.2   205  VAL205      0.2616
    120  O         41.8020    1.3000   22.7220 O.2   205  VAL205     -0.2715
    121  CB        39.1680   -0.1750   21.7250 C.3   205  VAL205      0.0290
    122  CG1       38.1920    0.8400   21.1910 C.3   205  VAL205      0.0023
    123  CG2       38.7480   -1.5850   21.2620 C.3   205  VAL205      0.0023
    124  N         41.1210    2.4520   20.9320 N.am  206  TYR206     -0.1974
    125  CA        41.7250    3.7510   21.2640 C.3   206  TYR206      0.1639
    126  C         40.8060    4.9480   21.1620 C.2   206  TYR206      0.2290
    127  O         39.8960    4.9310   20.3460 O.2   206  TYR206     -0.2864
    128  CB        42.9640    3.9420   20.2800 C.3   206  TYR206      0.0560
    129  CG        43.9710    2.8000   20.3820 C.ar  206  TYR206     -0.0198
    130  CD1       45.0580    2.8780   21.2310 C.ar  206  TYR206     -0.0009
    131  CD2       43.7810    1.6510   19.6530 C.ar  206  TYR206     -0.0009
    132  CE1       45.9380    1.8280   21.3570 C.ar  206  TYR206      0.0417
    133  CE2       44.6630    0.6030   19.7830 C.ar  206  TYR206      0.0417
    134  CZ        45.7440    0.6800   20.6370 C.ar  206  TYR206      0.1957
    135  OH        46.6030   -0.3880   20.7800 O.3   206  TYR206     -0.2866
@<TRIPOS>BOND
     1   111   110    1
     2   111   112    1
     3   110   107    1
     4   112   106    1
     5   107   106    1
     6   107   108    1
     7    97    98    1
     8   106    99   am
     9   116   115    2
    10    99    98    1
    11    99   100    2
    12   108   113   am
    13   108   109    2
    14    98   101    1
    15   131   133   ar
    16   131   129   ar
    17   113   114    1
    18   133   134   ar
    19   128   129    1
    20   128   125    1
    21   127   126    2
    22   129   130   ar
    23   115   114    1
    24   115   117   am
    25   134   135    1
    26   134   132   ar
    27    17    18    1
    28   105   104    1
    29   124   125    1
    30   124   119   am
    31   103   104    1
    32   103   102    1
    33   101   102    1
    34   118   117    1
    35   118   119    1
    36   118   121    1
    37    18    21    1
    38    18    19    1
    39   126   125    1
    40   122   121    1
    41   130   132   ar
    42   123   121    1
    43    21    22    1
    44    24    22   ar
    45   119   120    2
    46    22    23   ar
    47    19    25   am
    48    19    20    2
    49    25    26    1
    50    82    80   ar
    51    82    81   ar
    52    80    78   ar
    53    30    29    1
    54    29    26    1
    55    26    27    1
    56    81    79   ar
    57    72    71    2
    58    78    77   ar
    59    78    76   ar
    60    93    94    2
    61    93    92    1
    62    56    57    1
    63    77    75   ar
    64    62    60    1
    65    84    85    1
    66    84    83    1
    67    57    60    1
    68    57    58    1
    69    28    27    2
    70    79    76   ar
    71    76    74   ar
    72    27    31   am
    73    71    83   am
    74    71    70    1
    75    75    74   ar
    76    63    58   am
    77    63    64    1
    78    67    68    1
    79    67    64    1
    80    85    86    2
    81    92    91    1
    82    92    95    1
    83    60    61    1
    84    74    73    1
    85    58    59    2
    86    69    70    1
    87    69    65   am
    88    90    89    2
    89    91    89   am
    90    64    65    1
    91    70    73    1
    92    31    32    1
    93    89    88    1
    94    95    96    1
    95    65    66    2
    96    87    88    1
    97    32    35    1
    98    32    33    1
    99    96    36    1
   100    35    36    1
   101    34    33    2
   102    33    37   am
   103    51    50    1
   104    51    52    1
   105    51    54    1
   106    52    53    2
   107    37    38    1
   108    15    13   ar
   109    15    16   ar
   110    55    54    1
   111    13    12   ar
   112    48    49    2
   113    48    47    1
   114    38    39    1
   115    38    41    1
   116    16    14   ar
   117    40    39    2
   118    39    46   am
   119    12    14   ar
   120    12    11    1
   121    46    47    1
   122    41    42    1
   123     7     8    1
   124     3     4    2
   125     3     2    1
   126    11     8    1
   127     2     5    1
   128     2     1    1
   129     5     6    1
   130     8     9    1
   131    42    43    1
   132     9    10    2
   133    43    44    2
   134    43    45   am
