@<TRIPOS>MOLECULE
tmp/1o35A00.pdb
 139 137 0 0 0
SMALL
GASTEIGER

@<TRIPOS>ATOM
      1  N         50.8770    4.2850   36.8470 N.3    24  PHE24      -0.1227
      2  CA        49.5200    3.6680   36.6960 C.3    24  PHE24       0.1736
      3  C         48.9520    3.9760   35.2840 C.2    24  PHE24       0.2595
      4  O         48.0110    3.3140   34.8920 O.2    24  PHE24      -0.2718
      5  CB        48.5410    4.1890   37.7750 C.3    24  PHE24       0.0547
      6  CG        48.2470    5.6590   37.7360 C.ar   24  PHE24      -0.0202
      7  CD1       49.0180    6.5440   38.4600 C.ar   24  PHE24      -0.0042
      8  CD2       47.1990    6.1070   36.9840 C.ar   24  PHE24      -0.0042
      9  CE1       48.7200    7.8900   38.4250 C.ar   24  PHE24      -0.0003
     10  CE2       46.9160    7.4430   36.9520 C.ar   24  PHE24      -0.0003
     11  CZ        47.6600    8.3440   37.6600 C.ar   24  PHE24      -0.0000
     12  N         49.4540    4.9250   34.5270 N.am   25  CYS25      -0.1970
     13  CA        48.9110    5.2000   33.1760 C.3    25  CYS25       0.1712
     14  C         49.9290    6.0010   32.3870 C.2    25  CYS25       0.2296
     15  O         50.8630    6.5500   32.9500 O.2    25  CYS25      -0.2864
     16  CB        47.6060    6.0100   33.2590 C.3    25  CYS25       0.0983
     17  SG        46.0810    5.0670   33.4650 S.3    25  CYS25      -0.0798
     18  N         39.5810    7.3990   32.1290 N.3    40  HIS40      -0.1241
     19  CA        39.5690    6.3500   33.1550 C.3    40  HIS40       0.1621
     20  C         40.8570    6.2830   33.9200 C.2    40  HIS40       0.2264
     21  O         40.9330    5.4450   34.7990 O.2    40  HIS40      -0.2867
     22  CB        39.2260    4.9990   32.5130 C.3    40  HIS40       0.0745
     23  CG        40.2910    4.2120   31.7530 C.ar   40  HIS40       0.0817
     24  ND1       40.4590    4.1680   30.4640 N.ar   40  HIS40      -0.2268
     25  CD2       41.2570    3.3760   32.2970 C.ar   40  HIS40       0.1154
     26  CE1       41.4520    3.3580   30.1920 C.ar   40  HIS40       0.1986
     27  NE2       41.9520    2.8640   31.2990 N.ar   40  HIS40      -0.2212
     28  N         49.8640   -6.2770   21.1950 N.3   171  ASP171     -0.1225
     29  CA        48.7290   -5.3920   21.6150 C.3   171  ASP171      0.1805
     30  C         49.1970   -4.4700   22.7530 C.2   171  ASP171      0.2598
     31  O         50.3110   -4.6490   23.2450 O.2   171  ASP171     -0.2718
     32  CB        47.6050   -6.2710   22.1640 C.3   171  ASP171      0.1424
     33  CG        46.2440   -5.6120   22.3890 C.2   171  ASP171      0.3668
     34  OD1       45.3900   -6.2310   23.0270 O.co2 171  ASP171     -0.2456
     35  OD2       46.0090   -4.4960   21.9460 O.co2 171  ASP171     -0.2456
     36  N         48.3950   -3.5100   23.1540 N.am  172  SER172     -0.1938
     37  CA        48.7790   -2.6460   24.2660 C.3   172  SER172      0.2055
     38  C         48.1110   -3.5080   25.4020 C.2   172  SER172      0.2643
     39  O         47.3930   -4.4740   25.1530 O.2   172  SER172     -0.2714
     40  CB        48.1640   -1.2030   24.1260 C.3   172  SER172      0.2130
     41  OG        46.8570   -1.3120   23.6280 O.3   172  SER172     -0.2179
     42  N         48.3290   -3.1850   26.6490 N.am  173  CYS173     -0.1953
     43  CA        47.7560   -3.9590   27.7540 C.3   173  CYS173      0.1843
     44  C         47.6600   -3.0800   29.0220 C.2   173  CYS173      0.2625
     45  O         48.0250   -1.8990   28.9970 O.2   173  CYS173     -0.2714
     46  CB        48.6780   -5.2020   27.9420 C.3   173  CYS173      0.0997
     47  SG        48.0190   -6.5400   28.9700 S.3   173  CYS173     -0.0797
     48  N         47.1990   -3.6340   30.1140 N.am  174  GLN174     -0.1963
     49  CA        47.0560   -2.8390   31.3670 C.3   174  GLN174      0.1733
     50  C         48.3490   -2.1170   31.7030 C.2   174  GLN174      0.2616
     51  O         49.4230   -2.7050   31.6810 O.2   174  GLN174     -0.2715
     52  CB        46.6420   -3.7730   32.5010 C.3   174  GLN174      0.0408
     53  CG        46.3950   -2.9220   33.7930 C.3   174  GLN174      0.0908
     54  CD        45.7980   -3.7760   34.9200 C.2   174  GLN174      0.2608
     55  OE1       45.5510   -3.2620   35.9950 O.2   174  GLN174     -0.2717
     56  NE2       45.5430   -5.0360   34.7500 N.am  174  GLN174     -0.0878
     57  N         48.2440   -0.8520   32.0030 N.am  175  GLY175     -0.1955
     58  CA        49.4150   -0.0200   32.3510 C.3   175  GLY175      0.1869
     59  C         49.7420    0.8940   31.1670 C.2   175  GLY175      0.2309
     60  O         50.4640    1.8710   31.3200 O.2   175  GLY175     -0.2863
     61  N         47.2240    2.2260   29.2690 N.3   177  SER177     -0.1217
     62  CA        46.0700    3.1550   29.1650 C.3   177  SER177      0.1889
     63  C         46.4940    4.6190   29.2640 C.2   177  SER177      0.2288
     64  O         47.3760    4.9120   30.0490 O.2   177  SER177     -0.2866
     65  CB        45.0420    2.9180   30.2830 C.3   177  SER177      0.2089
     66  OG        44.3910    1.6620   30.0330 O.3   177  SER177     -0.2183
     67  N         45.3360    5.1150   24.1950 N.3   191  VAL191     -0.1231
     68  CA        45.1270    3.6860   24.5910 C.3   191  VAL191      0.1692
     69  C         43.9080    3.7110   25.5560 C.2   191  VAL191      0.2593
     70  O         43.9450    4.3690   26.5970 O.2   191  VAL191     -0.2718
     71  CB        46.3770    3.1740   25.3060 C.3   191  VAL191      0.0266
     72  CG1       46.1150    1.7210   25.7030 C.3   191  VAL191      0.0020
     73  CG2       47.6490    3.2870   24.4080 C.3   191  VAL191      0.0020
     74  N         42.8600    2.9980   25.2290 N.am  192  SER192     -0.1938
     75  CA        41.6410    2.9770   26.0600 C.3   192  SER192      0.2055
     76  C         41.2520    1.5980   26.6060 C.2   192  SER192      0.2643
     77  O         41.2740    1.4160   27.8250 O.2   192  SER192     -0.2714
     78  CB        40.5040    3.6050   25.1810 C.3   192  SER192      0.2130
     79  OG        39.3110    3.7170   25.9560 O.3   192  SER192     -0.2179
     80  N         40.8960    0.6220   25.8020 N.am  193  TRP193     -0.1959
     81  CA        40.5130   -0.6860   26.3820 C.3   193  TRP193      0.1771
     82  C         40.7050   -1.8110   25.3730 C.2   193  TRP193      0.2620
     83  O         41.1240   -1.5620   24.2550 O.2   193  TRP193     -0.2715
     84  CB        39.0240   -0.6230   26.8320 C.3   193  TRP193      0.0590
     85  CG        38.0020   -0.2850   25.7240 C.ar  193  TRP193      0.0006
     86  CD1       37.6530    0.9430   25.2550 C.ar  193  TRP193      0.0946
     87  CD2       37.2260   -1.1880   25.0520 C.ar  193  TRP193      0.0152
     88  NE1       36.7140    0.7970   24.3600 N.ar  193  TRP193     -0.2442
     89  CE2       36.4050   -0.4520   24.1980 C.ar  193  TRP193      0.0810
     90  CE3       37.1560   -2.5770   25.0690 C.ar  193  TRP193      0.0012
     91  CZ2       35.5020   -1.1050   23.3350 C.ar  193  TRP193      0.0191
     92  CZ3       36.2230   -3.2400   24.2520 C.ar  193  TRP193      0.0001
     93  CH2       35.3960   -2.5030   23.3800 C.ar  193  TRP193      0.0015
     94  N         40.4120   -3.0130   25.7690 N.am  194  GLY194     -0.1954
     95  CA        40.5360   -4.1980   24.8910 C.3   194  GLY194      0.1869
     96  C         39.9790   -5.3900   25.7020 C.2   194  GLY194      0.2309
     97  O         39.6060   -5.1970   26.8460 O.2   194  GLY194     -0.2863
     98  N         41.1400   -8.6010   27.3330 N.3   196  GLY196     -0.1210
     99  CA        42.3910   -9.3320   27.6760 C.3   196  GLY196      0.1956
    100  C         43.5030   -8.5600   26.9370 C.2   196  GLY196      0.2612
    101  O         43.3450   -7.3720   26.7410 O.2   196  GLY196     -0.2717
    102  N         44.5740   -9.1700   26.5500 N.am  197  CYS197     -0.1970
    103  CA        45.6250   -8.4530   25.8330 C.3   197  CYS197      0.1712
    104  C         46.1830   -9.4290   24.8350 C.2   197  CYS197      0.2296
    105  O         46.4700  -10.5590   25.1820 O.2   197  CYS197     -0.2864
    106  CB        46.7910   -8.0170   26.7570 C.3   197  CYS197      0.0983
    107  SG        46.2450   -6.9340   28.0920 S.3   197  CYS197     -0.0798
    108  N         40.6650   -9.9880   18.9830 N.3   202  LYS202     -0.1245
    109  CA        40.2410   -8.9950   20.0380 C.3   202  LYS202      0.1561
    110  C         41.2870   -7.8650   20.0080 C.2   202  LYS202      0.2260
    111  O         42.1410   -7.7670   20.8880 O.2   202  LYS202     -0.2867
    112  CB        40.2140   -9.6830   21.4270 C.3   202  LYS202      0.0271
    113  CG        39.0230  -10.7030   21.5240 C.3   202  LYS202      0.0035
    114  CD        37.6580   -9.9310   21.3680 C.3   202  LYS202      0.0206
    115  CE        36.5150  -10.9480   21.4080 C.3   202  LYS202      0.1093
    116  NZ        35.2440  -10.2350   21.2250 N.3   202  LYS202     -0.1314
    117  N         43.0340   -3.9960   20.1220 N.3   204  GLY204     -0.1210
    118  CA        42.8990   -2.9160   21.1400 C.3   204  GLY204      0.1956
    119  C         41.9720   -1.8480   20.5700 C.2   204  GLY204      0.2612
    120  O         41.8530   -1.6760   19.3620 O.2   204  GLY204     -0.2717
    121  N         41.3210   -1.1250   21.4390 N.am  205  VAL205     -0.1965
    122  CA        40.3740   -0.0290   21.0970 C.3   205  VAL205      0.1727
    123  C         41.0040    1.2410   21.6900 C.2   205  VAL205      0.2616
    124  O         41.4730    1.3090   22.8280 O.2   205  VAL205     -0.2715
    125  CB        38.9880   -0.3520   21.7000 C.3   205  VAL205      0.0290
    126  CG1       37.9960    0.6740   21.1760 C.3   205  VAL205      0.0023
    127  CG2       38.5140   -1.7450   21.2380 C.3   205  VAL205      0.0023
    128  N         40.9820    2.2300   20.8670 N.am  206  TYR206     -0.1974
    129  CA        41.5430    3.5640   21.1230 C.3   206  TYR206      0.1639
    130  C         40.6010    4.7300   20.9740 C.2   206  TYR206      0.2290
    131  O         39.7030    4.6700   20.1500 O.2   206  TYR206     -0.2864
    132  CB        42.7380    3.6960   20.1320 C.3   206  TYR206      0.0560
    133  CG        43.7130    2.5330   20.3140 C.ar  206  TYR206     -0.0198
    134  CD1       44.7290    2.6790   21.2250 C.ar  206  TYR206     -0.0009
    135  CD2       43.5740    1.3330   19.6410 C.ar  206  TYR206     -0.0009
    136  CE1       45.6110    1.6530   21.4720 C.ar  206  TYR206      0.0417
    137  CE2       44.4600    0.2920   19.8860 C.ar  206  TYR206      0.0417
    138  CZ        45.4990    0.4520   20.8040 C.ar  206  TYR206      0.1957
    139  OH        46.4110   -0.5480   21.0770 O.3   206  TYR206     -0.2866
@<TRIPOS>BOND
     1   108   109    1
     2   120   119    2
     3   135   137   ar
     4   135   133   ar
     5   137   138   ar
     6   110   109    1
     7   110   111    2
     8   109   112    1
     9   117   118    1
    10   132   133    1
    11   132   129    1
    12   131   130    2
    13   133   134   ar
    14   119   118    1
    15   119   121   am
    16   138   139    1
    17   138   136   ar
    18   128   129    1
    19   128   123   am
    20   130   129    1
    21   122   121    1
    22   122   123    1
    23   122   125    1
    24   126   125    1
    25    28    29    1
    26   134   136   ar
    27   116   115    1
    28   127   125    1
    29   114   115    1
    30   114   113    1
    31   112   113    1
    32    29    32    1
    33    29    30    1
    34   123   124    2
    35    35    33   ar
    36    32    33    1
    37    33    34   ar
    38    30    36   am
    39    30    31    2
    40    36    37    1
    41    91    93   ar
    42    91    89   ar
    43    93    92   ar
    44    41    40    1
    45    40    37    1
    46    67    68    1
    47    89    88   ar
    48    89    87   ar
    49    92    90   ar
    50    83    82    2
    51    37    38    1
    52    88    86   ar
    53    73    71    1
    54    68    71    1
    55    68    69    1
    56   104   105    2
    57   104   103    1
    58    95    96    1
    59    95    94    1
    60    87    90   ar
    61    87    85   ar
    62    39    38    2
    63    78    79    1
    64    78    75    1
    65    74    69   am
    66    74    75    1
    67    86    85   ar
    68    71    72    1
    69    82    94   am
    70    82    81    1
    71    38    42   am
    72    69    70    2
    73    96    97    2
    74    85    84    1
    75    80    81    1
    76    80    76   am
    77   103   102    1
    78   103   106    1
    79    75    76    1
    80    81    84    1
    81   102   100   am
    82    76    77    2
    83    42    43    1
    84   101   100    2
    85   106   107    1
    86   100    99    1
    87    98    99    1
    88    43    46    1
    89    43    44    1
    90    46    47    1
    91   107    47    1
    92    45    44    2
    93    44    48   am
    94    62    63    1
    95    62    61    1
    96    62    65    1
    97    63    64    2
    98    66    65    1
    99    48    49    1
   100    26    24   ar
   101    26    27   ar
   102    24    23   ar
   103    59    60    2
   104    59    58    1
   105    27    25   ar
   106    49    50    1
   107    49    52    1
   108    51    50    2
   109    50    57   am
   110    23    25   ar
   111    23    22    1
   112    57    58    1
   113    18    19    1
   114    14    15    2
   115    14    13    1
   116    52    53    1
   117    22    19    1
   118    19    20    1
   119    13    16    1
   120    13    12    1
   121    16    17    1
   122    53    54    1
   123    20    21    2
   124    12     3   am
   125    56    54   am
   126     4     3    2
   127    54    55    2
   128     3     2    1
   129     2     1    1
   130     2     5    1
   131    10     8   ar
   132    10    11   ar
   133     8     6   ar
   134    11     9   ar
   135     6     5    1
   136     6     7   ar
   137     9     7   ar
