@<TRIPOS>MOLECULE
tmp/1o38A00.pdb
 160 159 0 0 0
SMALL
GASTEIGER

@<TRIPOS>ATOM
      1  N         50.8630    4.2380   36.7780 N.3    24  PHE24      -0.1227
      2  CA        49.5120    3.6150   36.6100 C.3    24  PHE24       0.1736
      3  C         48.9310    3.9200   35.1940 C.2    24  PHE24       0.2595
      4  O         48.0070    3.2210   34.8320 O.2    24  PHE24      -0.2718
      5  CB        48.5120    4.1080   37.7300 C.3    24  PHE24       0.0547
      6  CG        48.1780    5.5790   37.6970 C.ar   24  PHE24      -0.0202
      7  CD1       48.9280    6.4900   38.4090 C.ar   24  PHE24      -0.0042
      8  CD2       47.1050    6.0320   36.9520 C.ar   24  PHE24      -0.0042
      9  CE1       48.6100    7.8380   38.3840 C.ar   24  PHE24      -0.0003
     10  CE2       46.7960    7.3650   36.9280 C.ar   24  PHE24      -0.0003
     11  CZ        47.5320    8.2840   37.6320 C.ar   24  PHE24      -0.0000
     12  N         49.4390    4.8890   34.4750 N.am   25  CYS25      -0.1970
     13  CA        48.9090    5.1900   33.1100 C.3    25  CYS25       0.1712
     14  C         49.9160    6.0090   32.3380 C.2    25  CYS25       0.2296
     15  O         50.8350    6.5650   32.9100 O.2    25  CYS25      -0.2864
     16  CB        47.6030    6.0320   33.1670 C.3    25  CYS25       0.0983
     17  SG        46.0300    5.1250   33.4000 S.3    25  CYS25      -0.0798
     18  N         39.5630    7.3690   32.1490 N.3    40  HIS40      -0.1226
     19  CA        39.5300    6.3200   33.1830 C.3    40  HIS40       0.1752
     20  C         40.8300    6.2580   33.9760 C.2    40  HIS40       0.2596
     21  O         40.9030    5.4510   34.8830 O.2    40  HIS40      -0.2718
     22  CB        39.2040    4.9170   32.5800 C.3    40  HIS40       0.0759
     23  CG        40.3030    4.1370   31.8410 C.ar   40  HIS40       0.0818
     24  ND1       40.4630    4.0830   30.5280 N.ar   40  HIS40      -0.2268
     25  CD2       41.3150    3.3200   32.3840 C.ar   40  HIS40       0.1154
     26  CE1       41.4780    3.3200   30.2390 C.ar   40  HIS40       0.1986
     27  NE2       41.9950    2.8530   31.3510 N.ar   40  HIS40      -0.2212
     28  N         41.7870    7.0780   33.6460 N.am   41  CYS41      -0.1970
     29  CA        43.0760    7.0870   34.4090 C.3    41  CYS41       0.1712
     30  C         42.9740    8.2090   35.4880 C.2    41  CYS41       0.2296
     31  O         43.8960    8.4660   36.2270 O.2    41  CYS41      -0.2864
     32  CB        44.2300    7.4640   33.5080 C.3    41  CYS41       0.0983
     33  SG        44.7030    6.1850   32.3500 S.3    41  CYS41      -0.0798
     34  N         42.5290   10.3510   38.7910 N.3    43  LYS43      -0.1245
     35  CA        42.6810   10.1200   40.2650 C.3    43  LYS43       0.1561
     36  C         43.2930   11.3910   40.7960 C.2    43  LYS43       0.2260
     37  O         43.8030   12.2050   40.0430 O.2    43  LYS43      -0.2867
     38  CB        43.5960    8.9470   40.6200 C.3    43  LYS43       0.0271
     39  CG        45.0170    9.1860   40.2370 C.3    43  LYS43       0.0035
     40  CD        45.8580    8.1280   40.9570 C.3    43  LYS43       0.0206
     41  CE        45.4640    6.7350   40.5750 C.3    43  LYS43       0.1093
     42  NZ        46.3820    5.7940   41.2820 N.3    43  LYS43      -0.1314
     43  N         49.8880   -6.2420   21.1010 N.3   171  ASP171     -0.1225
     44  CA        48.7670   -5.3260   21.5100 C.3   171  ASP171      0.1805
     45  C         49.2250   -4.4470   22.6900 C.2   171  ASP171      0.2598
     46  O         50.2990   -4.6600   23.2420 O.2   171  ASP171     -0.2718
     47  CB        47.5910   -6.2110   21.9730 C.3   171  ASP171      0.1424
     48  CG        46.2190   -5.5130   22.1430 C.2   171  ASP171      0.3668
     49  OD1       45.3790   -6.1900   22.7260 O.co2 171  ASP171     -0.2456
     50  OD2       46.0940   -4.3910   21.6950 O.co2 171  ASP171     -0.2456
     51  N         48.4160   -3.4770   23.0450 N.am  172  SER172     -0.1938
     52  CA        48.7530   -2.6170   24.1980 C.3   172  SER172      0.2055
     53  C         48.0330   -3.4450   25.3050 C.2   172  SER172      0.2643
     54  O         47.3110   -4.4030   25.0500 O.2   172  SER172     -0.2714
     55  CB        48.1630   -1.1860   24.0080 C.3   172  SER172      0.2130
     56  OG        46.7990   -1.2810   23.6070 O.3   172  SER172     -0.2179
     57  N         48.2350   -3.0590   26.5310 N.am  173  CYS173     -0.1953
     58  CA        47.6190   -3.7850   27.6620 C.3   173  CYS173      0.1843
     59  C         47.5050   -2.8630   28.8770 C.2   173  CYS173      0.2625
     60  O         47.8850   -1.7080   28.7880 O.2   173  CYS173     -0.2714
     61  CB        48.5150   -4.9990   27.9460 C.3   173  CYS173      0.0997
     62  SG        47.7940   -6.3200   28.9530 S.3   173  CYS173     -0.0797
     63  N         47.0070   -3.3960   29.9680 N.am  174  GLN174     -0.1963
     64  CA        46.8400   -2.5850   31.2310 C.3   174  GLN174      0.1733
     65  C         48.2000   -1.9310   31.5410 C.2   174  GLN174      0.2616
     66  O         49.2460   -2.5630   31.4600 O.2   174  GLN174     -0.2715
     67  CB        46.4170   -3.5300   32.3340 C.3   174  GLN174      0.0408
     68  CG        46.1540   -2.7700   33.6500 C.3   174  GLN174      0.0908
     69  CD        45.6830   -3.7870   34.6970 C.2   174  GLN174      0.2608
     70  OE1       45.5130   -4.9600   34.4130 O.2   174  GLN174     -0.2717
     71  NE2       45.4480   -3.4160   35.9150 N.am  174  GLN174     -0.0878
     72  N         48.1410   -0.6820   31.8700 N.am  175  GLY175     -0.1955
     73  CA        49.3870    0.0660   32.1870 C.3   175  GLY175      0.1869
     74  C         49.7380    0.9960   31.0460 C.2   175  GLY175      0.2309
     75  O         50.4240    1.9860   31.2370 O.2   175  GLY175     -0.2863
     76  N         47.2750    2.2530   29.1740 N.3   177  SER177     -0.1217
     77  CA        46.0740    3.1570   29.1400 C.3   177  SER177      0.1889
     78  C         46.4700    4.6160   29.2270 C.2   177  SER177      0.2288
     79  O         47.3320    4.9070   30.0340 O.2   177  SER177     -0.2866
     80  CB        45.1150    2.9760   30.3370 C.3   177  SER177      0.2089
     81  OG        44.4130    1.7380   30.1570 O.3   177  SER177     -0.2183
     82  N         45.2710    5.1130   24.1880 N.3   191  VAL191     -0.1231
     83  CA        45.0570    3.7000   24.5790 C.3   191  VAL191      0.1692
     84  C         43.8410    3.7140   25.5710 C.2   191  VAL191      0.2593
     85  O         43.8990    4.3440   26.6210 O.2   191  VAL191     -0.2718
     86  CB        46.3440    3.1750   25.2690 C.3   191  VAL191      0.0266
     87  CG1       46.1030    1.7440   25.7120 C.3   191  VAL191      0.0020
     88  CG2       47.5980    3.3010   24.3660 C.3   191  VAL191      0.0020
     89  N         42.7940    3.0110   25.2210 N.am  192  SER192     -0.1938
     90  CA        41.5980    2.9860   26.0800 C.3   192  SER192      0.2055
     91  C         41.2290    1.5990   26.6010 C.2   192  SER192      0.2643
     92  O         41.3490    1.3840   27.7950 O.2   192  SER192     -0.2714
     93  CB        40.4740    3.6290   25.2340 C.3   192  SER192      0.2130
     94  OG        39.2470    3.6850   25.9580 O.3   192  SER192     -0.2179
     95  N         40.8050    0.6810   25.7670 N.am  193  TRP193     -0.1959
     96  CA        40.4330   -0.6610   26.2910 C.3   193  TRP193      0.1771
     97  C         40.5890   -1.7760   25.2760 C.2   193  TRP193      0.2620
     98  O         41.0510   -1.5450   24.1700 O.2   193  TRP193     -0.2715
     99  CB        38.9680   -0.6380   26.7400 C.3   193  TRP193      0.0590
    100  CG        37.9260   -0.2720   25.6490 C.ar  193  TRP193      0.0006
    101  CD1       37.6010    0.9880   25.2490 C.ar  193  TRP193      0.0946
    102  CD2       37.1030   -1.1350   25.0060 C.ar  193  TRP193      0.0152
    103  NE1       36.6240    0.8070   24.3720 N.ar  193  TRP193     -0.2442
    104  CE2       36.2270   -0.4260   24.1760 C.ar  193  TRP193      0.0810
    105  CE3       37.0350   -2.5170   25.0680 C.ar  193  TRP193      0.0012
    106  CZ2       35.2790   -1.0920   23.3960 C.ar  193  TRP193      0.0191
    107  CZ3       36.0710   -3.1970   24.3030 C.ar  193  TRP193      0.0001
    108  CH2       35.2100   -2.4780   23.4660 C.ar  193  TRP193      0.0015
    109  N         40.2080   -2.9570   25.6820 N.am  194  GLY194     -0.1940
    110  CA        40.2770   -4.1580   24.8070 C.3   194  GLY194      0.2014
    111  C         39.8290   -5.3480   25.6790 C.2   194  GLY194      0.2640
    112  O         39.6200   -5.1590   26.8610 O.2   194  GLY194     -0.2714
    113  N         39.6940   -6.5120   25.0880 N.am  195  SER195     -0.1935
    114  CA        39.2710   -7.7650   25.8090 C.3   195  SER195      0.2055
    115  C         40.5740   -8.5150   26.0220 C.2   195  SER195      0.2644
    116  O         41.1080   -9.0870   25.0790 O.2   195  SER195     -0.2714
    117  CB        38.3290   -8.6030   24.9350 C.3   195  SER195      0.2130
    118  OG        37.1660   -7.7990   24.7990 O.3   195  SER195     -0.2179
    119  N         41.0480   -8.4760   27.2280 N.am  196  GLY196     -0.1939
    120  CA        42.3300   -9.1780   27.5370 C.3   196  GLY196      0.2014
    121  C         43.3800   -8.3180   26.8130 C.2   196  GLY196      0.2639
    122  O         43.1260   -7.1370   26.5710 O.2   196  GLY196     -0.2714
    123  N         44.4820   -8.9460   26.5150 N.am  197  CYS197     -0.1967
    124  CA        45.5880   -8.3020   25.7990 C.3   197  CYS197      0.1712
    125  C         46.1340   -9.3410   24.8310 C.2   197  CYS197      0.2296
    126  O         46.3900  -10.4670   25.2020 O.2   197  CYS197     -0.2864
    127  CB        46.6790   -7.8920   26.7500 C.3   197  CYS197      0.0983
    128  SG        46.0440   -6.7490   27.9930 S.3   197  CYS197     -0.0798
    129  N         40.5460   -9.8820   18.9860 N.3   202  LYS202     -0.1245
    130  CA        40.1420   -8.8640   20.0090 C.3   202  LYS202      0.1561
    131  C         41.2450   -7.7750   19.9930 C.2   202  LYS202      0.2260
    132  O         42.0950   -7.7080   20.8760 O.2   202  LYS202     -0.2867
    133  CB        40.0680   -9.5300   21.3800 C.3   202  LYS202      0.0271
    134  CG        38.9190  -10.5950   21.4390 C.3   202  LYS202      0.0035
    135  CD        37.5320   -9.8820   21.2590 C.3   202  LYS202      0.0206
    136  CE        36.4310  -10.9570   21.3620 C.3   202  LYS202      0.1093
    137  NZ        35.1350  -10.3510   21.0540 N.3   202  LYS202     -0.1314
    138  N         42.9740   -3.9080   20.0740 N.3   204  GLY204     -0.1210
    139  CA        42.8140   -2.8160   21.0740 C.3   204  GLY204      0.1956
    140  C         41.8800   -1.7540   20.4980 C.2   204  GLY204      0.2612
    141  O         41.7830   -1.6020   19.2900 O.2   204  GLY204     -0.2717
    142  N         41.2370   -1.0460   21.4020 N.am  205  VAL205     -0.1965
    143  CA        40.2820    0.0400   21.0550 C.3   205  VAL205      0.1727
    144  C         40.9170    1.3020   21.6800 C.2   205  VAL205      0.2616
    145  O         41.3880    1.3500   22.8200 O.2   205  VAL205     -0.2715
    146  CB        38.8820   -0.2870   21.6430 C.3   205  VAL205      0.0290
    147  CG1       37.9150    0.7760   21.1180 C.3   205  VAL205      0.0023
    148  CG2       38.4040   -1.7040   21.1860 C.3   205  VAL205      0.0023
    149  N         40.8810    2.2910   20.8430 N.am  206  TYR206     -0.1974
    150  CA        41.4470    3.6310   21.1040 C.3   206  TYR206      0.1639
    151  C         40.4940    4.7910   20.9380 C.2   206  TYR206      0.2290
    152  O         39.6210    4.7280   20.0960 O.2   206  TYR206     -0.2864
    153  CB        42.6860    3.7980   20.1040 C.3   206  TYR206      0.0560
    154  CG        43.6580    2.6200   20.2640 C.ar  206  TYR206     -0.0198
    155  CD1       44.6750    2.7350   21.2010 C.ar  206  TYR206     -0.0009
    156  CD2       43.5330    1.4180   19.5560 C.ar  206  TYR206     -0.0009
    157  CE1       45.5390    1.6880   21.4250 C.ar  206  TYR206      0.0417
    158  CE2       44.4050    0.3670   19.7860 C.ar  206  TYR206      0.0417
    159  CZ        45.4200    0.4870   20.7330 C.ar  206  TYR206      0.1957
    160  OH        46.2850   -0.5560   20.9960 O.3   206  TYR206     -0.2866
@<TRIPOS>BOND
     1   129   130    1
     2   141   140    2
     3   156   158   ar
     4   156   154   ar
     5   158   159   ar
     6   131   130    1
     7   131   132    2
     8   130   133    1
     9   138   139    1
    10   152   151    2
    11   153   154    1
    12   153   150    1
    13   154   155   ar
    14   140   139    1
    15   140   142   am
    16   159   160    1
    17   159   157   ar
    18   149   150    1
    19   149   144   am
    20   151   150    1
    21   137   136    1
    22   143   142    1
    23   143   146    1
    24   143   144    1
    25    43    44    1
    26   147   146    1
    27   148   146    1
    28   155   157   ar
    29   135   136    1
    30   135   134    1
    31   133   134    1
    32    44    47    1
    33    44    45    1
    34   144   145    2
    35    50    48   ar
    36    47    48    1
    37    48    49   ar
    38    45    51   am
    39    45    46    2
    40    51    52    1
    41   106   108   ar
    42   106   104   ar
    43   108   107   ar
    44    56    55    1
    45    55    52    1
    46    98    97    2
    47   104   103   ar
    48   104   102   ar
    49    82    83    1
    50    52    53    1
    51   107   105   ar
    52    88    86    1
    53   103   101   ar
    54    83    86    1
    55    83    84    1
    56   118   117    1
    57   110   111    1
    58   110   109    1
    59   125   126    2
    60   125   124    1
    61   117   114    1
    62   102   105   ar
    63   102   100   ar
    64    54    53    2
    65   116   115    2
    66   113   111   am
    67   113   114    1
    68    89    84   am
    69    89    90    1
    70    93    94    1
    71    93    90    1
    72   101   100   ar
    73    86    87    1
    74    97   109   am
    75    97    96    1
    76    53    57   am
    77    84    85    2
    78   100    99    1
    79   111   112    2
    80    95    96    1
    81    95    91   am
    82   124   123    1
    83   124   127    1
    84   114   115    1
    85   115   119   am
    86    90    91    1
    87    96    99    1
    88   123   121   am
    89    57    58    1
    90   122   121    2
    91    91    92    2
    92   127   128    1
    93   121   120    1
    94   119   120    1
    95    58    61    1
    96    58    59    1
    97    61    62    1
    98   128    62    1
    99    60    59    2
   100    59    63   am
   101    77    76    1
   102    77    78    1
   103    77    80    1
   104    78    79    2
   105    63    64    1
   106    81    80    1
   107    26    24   ar
   108    26    27   ar
   109    24    23   ar
   110    74    75    2
   111    74    73    1
   112    64    65    1
   113    64    67    1
   114    27    25   ar
   115    66    65    2
   116    65    72   am
   117    23    25   ar
   118    23    22    1
   119    72    73    1
   120    18    19    1
   121    67    68    1
   122    14    15    2
   123    14    13    1
   124    33    17    1
   125    33    32    1
   126    22    19    1
   127    13    16    1
   128    13    12    1
   129    16    17    1
   130    19    20    1
   131    32    29    1
   132    28    20   am
   133    28    29    1
   134    68    69    1
   135    20    21    2
   136    29    30    1
   137    70    69    2
   138    12     3   am
   139    69    71   am
   140     4     3    2
   141     3     2    1
   142    30    31    2
   143     2     1    1
   144     2     5    1
   145    10     8   ar
   146    10    11   ar
   147     8     6   ar
   148    11     9   ar
   149     6     5    1
   150     6     7   ar
   151     9     7   ar
   152    34    35    1
   153    37    36    2
   154    39    38    1
   155    39    40    1
   156    35    38    1
   157    35    36    1
   158    41    40    1
   159    41    42    1
