@<TRIPOS>MOLECULE
tmp/1o3aA00.pdb
 103 104 0 0 0
SMALL
GASTEIGER

@<TRIPOS>ATOM
      1  N         50.8200    4.3760   36.6850 N.3    24  PHE24      -0.1227
      2  CA        49.4980    3.6630   36.5740 C.3    24  PHE24       0.1736
      3  C         48.8870    3.9040   35.2020 C.2    24  PHE24       0.2595
      4  O         47.9660    3.2120   34.8550 O.2    24  PHE24      -0.2718
      5  CB        48.4940    4.1180   37.6730 C.3    24  PHE24       0.0547
      6  CG        48.2040    5.5880   37.6770 C.ar   24  PHE24      -0.0202
      7  CD1       48.9730    6.4610   38.4210 C.ar   24  PHE24      -0.0042
      8  CD2       47.1630    6.0620   36.9110 C.ar   24  PHE24      -0.0042
      9  CE1       48.6920    7.8140   38.3910 C.ar   24  PHE24      -0.0003
     10  CE2       46.9000    7.3850   36.8900 C.ar   24  PHE24      -0.0003
     11  CZ        47.6570    8.2750   37.6240 C.ar   24  PHE24      -0.0000
     12  N         49.3970    4.8580   34.4590 N.am   25  CYS25      -0.1970
     13  CA        48.8880    5.1720   33.1030 C.3    25  CYS25       0.1712
     14  C         49.9560    5.9650   32.3830 C.2    25  CYS25       0.2296
     15  O         50.9180    6.4390   32.9610 O.2    25  CYS25      -0.2864
     16  CB        47.6430    6.0070   33.1940 C.3    25  CYS25       0.0983
     17  SG        46.1520    5.0120   33.4920 S.3    25  CYS25      -0.0798
     18  N         39.7240    7.2640   32.1960 N.3    40  HIS40      -0.1226
     19  CA        39.6660    6.3170   33.2850 C.3    40  HIS40       0.1752
     20  C         40.9960    6.3500   33.9930 C.2    40  HIS40       0.2596
     21  O         41.1860    5.6380   34.9420 O.2    40  HIS40      -0.2718
     22  CB        39.2110    4.9450   32.6490 C.3    40  HIS40       0.0759
     23  CG        40.2870    4.2140   31.8750 C.ar   40  HIS40       0.0818
     24  ND1       40.3310    3.9920   30.5870 N.ar   40  HIS40      -0.2268
     25  CD2       41.4290    3.6710   32.4280 C.ar   40  HIS40       0.1154
     26  CE1       41.4310    3.3560   30.3120 C.ar   40  HIS40       0.1986
     27  NE2       42.0830    3.1670   31.4280 N.ar   40  HIS40      -0.2212
     28  N         41.9280    7.1350   33.5850 N.am   41  CYS41      -0.1956
     29  CA        43.2000    7.1270   34.3700 C.3    41  CYS41       0.1843
     30  C         43.0510    8.2710   35.3950 C.2    41  CYS41       0.2625
     31  O         43.9980    8.6630   36.0210 O.2    41  CYS41      -0.2714
     32  CB        44.3720    7.4910   33.5260 C.3    41  CYS41       0.0997
     33  SG        44.8630    6.1610   32.4630 S.3    41  CYS41      -0.0797
     34  N         41.8940    8.8040   35.6080 N.am   42  TYR42      -0.1960
     35  CA        41.7820    9.9220   36.5830 C.3    42  TYR42       0.1771
     36  C         41.8700    9.5510   38.0590 C.2    42  TYR42       0.2619
     37  O         41.3760    8.5320   38.4990 O.2    42  TYR42      -0.2715
     38  CB        40.4160   10.6750   36.3120 C.3    42  TYR42       0.0574
     39  CG        40.2370   11.7560   37.3560 C.ar   42  TYR42      -0.0198
     40  CD1       39.5480   11.4870   38.5030 C.ar   42  TYR42      -0.0009
     41  CD2       40.7910   12.9840   37.2000 C.ar   42  TYR42      -0.0009
     42  CE1       39.4200   12.4360   39.4900 C.ar   42  TYR42       0.0417
     43  CE2       40.6630   13.9180   38.1740 C.ar   42  TYR42       0.0417
     44  CZ        39.9840   13.6650   39.3260 C.ar   42  TYR42       0.1957
     45  OH        39.8990   14.6580   40.2850 O.3    42  TYR42      -0.2866
     46  N         42.5110   10.4200   38.7710 N.am   43  LYS43      -0.1977
     47  CA        42.7040   10.2830   40.2290 C.3    43  LYS43       0.1596
     48  C         43.3250   11.6050   40.6960 C.2    43  LYS43       0.2287
     49  O         43.6140   12.5090   39.9230 O.2    43  LYS43      -0.2864
     50  CB        43.6210    9.0450   40.5620 C.3    43  LYS43       0.0298
     51  CG        45.0790    9.2470   40.2060 C.3    43  LYS43       0.0038
     52  CD        45.9220    8.2720   40.9630 C.3    43  LYS43       0.0206
     53  CE        45.5850    6.8400   40.5510 C.3    43  LYS43       0.1093
     54  NZ        46.5000    5.9120   41.2730 N.3    43  LYS43      -0.1314
     55  N         48.5500   -3.2370   26.6750 N.3   173  CYS173     -0.1221
     56  CA        47.9150   -3.9980   27.7570 C.3   173  CYS173      0.1808
     57  C         47.7910   -3.0980   28.9610 C.2   173  CYS173      0.2601
     58  O         48.1240   -1.9320   28.8410 O.2   173  CYS173     -0.2717
     59  CB        48.8020   -5.2180   27.9910 C.3   173  CYS173      0.0970
     60  SG        48.0890   -6.5740   28.9320 S.3   173  CYS173     -0.0800
     61  N         47.3530   -3.6440   30.0670 N.am  174  GLN174     -0.1965
     62  CA        47.2160   -2.7700   31.2770 C.3   174  GLN174      0.1733
     63  C         48.5740   -2.1210   31.6620 C.2   174  GLN174      0.2616
     64  O         49.6090   -2.7580   31.7360 O.2   174  GLN174     -0.2715
     65  CB        46.6500   -3.6260   32.4130 C.3   174  GLN174      0.0408
     66  CG        47.5260   -4.8270   32.7810 C.3   174  GLN174      0.0908
     67  CD        46.7300   -5.6180   33.8270 C.2   174  GLN174      0.2608
     68  OE1       46.2350   -5.0580   34.7860 O.2   174  GLN174     -0.2717
     69  NE2       46.5870   -6.9010   33.6740 N.am  174  GLN174     -0.0878
     70  N         48.5310   -0.8410   31.9000 N.am  175  GLY175     -0.1955
     71  CA        49.7470   -0.0720   32.2620 C.3   175  GLY175      0.1869
     72  C         49.9650    0.8380   31.0330 C.2   175  GLY175      0.2309
     73  O         50.7450    1.7760   31.0490 O.2   175  GLY175     -0.2863
     74  N         47.0890    2.0680   29.2270 N.3   177  SER177     -0.1217
     75  CA        45.9190    3.0300   29.1250 C.3   177  SER177      0.1889
     76  C         46.3670    4.5230   29.1490 C.2   177  SER177      0.2288
     77  O         47.2830    4.8770   29.8640 O.2   177  SER177     -0.2866
     78  CB        44.9950    2.7560   30.2690 C.3   177  SER177      0.2089
     79  OG        44.7540    1.3290   30.2100 O.3   177  SER177     -0.2183
     80  N         42.7360    2.8900   25.2540 N.3   192  SER192     -0.1202
     81  CA        41.5560    2.9710   26.1330 C.3   192  SER192      0.2020
     82  C         41.2480    1.5500   26.6860 C.2   192  SER192      0.2619
     83  O         41.4170    1.2960   27.8630 O.2   192  SER192     -0.2717
     84  CB        40.4410    3.5730   25.2840 C.3   192  SER192      0.2103
     85  OG        39.2850    3.7320   26.1040 O.3   192  SER192     -0.2182
     86  N         40.8060    0.6340   25.8630 N.am  193  TRP193     -0.1961
     87  CA        40.5080   -0.7420   26.3990 C.3   193  TRP193      0.1771
     88  C         40.8160   -1.8800   25.4500 C.2   193  TRP193      0.2620
     89  O         41.4430   -1.6770   24.4150 O.2   193  TRP193     -0.2715
     90  CB        39.0670   -0.8150   26.7720 C.3   193  TRP193      0.0590
     91  CG        38.0020   -0.4640   25.7160 C.ar  193  TRP193      0.0006
     92  CD1       37.6010    0.8000   25.3860 C.ar  193  TRP193      0.0946
     93  CD2       37.2400   -1.3350   25.0260 C.ar  193  TRP193      0.0152
     94  NE1       36.6190    0.5940   24.5280 N.ar  193  TRP193     -0.2442
     95  CE2       36.3180   -0.6540   24.2400 C.ar  193  TRP193      0.0810
     96  CE3       37.2650   -2.7100   25.0060 C.ar  193  TRP193      0.0012
     97  CZ2       35.4110   -1.3620   23.4380 C.ar  193  TRP193      0.0191
     98  CZ3       36.3830   -3.4130   24.2230 C.ar  193  TRP193      0.0001
     99  CH2       35.4520   -2.7400   23.4350 C.ar  193  TRP193      0.0015
    100  N         40.3820   -3.0510   25.8230 N.am  194  GLY194     -0.1954
    101  CA        40.6010   -4.2640   24.9750 C.3   194  GLY194      0.1869
    102  C         40.0830   -5.4570   25.7590 C.2   194  GLY194      0.2309
    103  O         39.7200   -5.2800   26.9010 O.2   194  GLY194     -0.2863
@<TRIPOS>BOND
     1    99    97   ar
     2    99    98   ar
     3    97    95   ar
     4    98    96   ar
     5    95    94   ar
     6    95    93   ar
     7    89    88    2
     8    94    92   ar
     9   101   102    1
    10   101   100    1
    11    96    93   ar
    12    93    91   ar
    13    80    81    1
    14    84    85    1
    15    84    81    1
    16    92    91   ar
    17    88   100   am
    18    88    87    1
    19    91    90    1
    20   102   103    2
    21    86    87    1
    22    86    82   am
    23    81    82    1
    24    87    90    1
    25    55    56    1
    26    82    83    2
    27    56    59    1
    28    56    57    1
    29    59    60    1
    30    58    57    2
    31    57    61   am
    32    75    76    1
    33    75    74    1
    34    75    78    1
    35    76    77    2
    36    61    62    1
    37    79    78    1
    38    26    24   ar
    39    26    27   ar
    40    24    23   ar
    41    72    73    2
    42    72    71    1
    43    62    63    1
    44    62    65    1
    45    27    25   ar
    46    63    64    2
    47    63    70   am
    48    23    25   ar
    49    23    22    1
    50    70    71    1
    51    18    19    1
    52    14    15    2
    53    14    13    1
    54    65    66    1
    55    33    17    1
    56    33    32    1
    57    22    19    1
    58    66    67    1
    59    13    16    1
    60    13    12    1
    61    16    17    1
    62    19    20    1
    63    32    29    1
    64    28    20   am
    65    28    29    1
    66    69    67   am
    67    67    68    2
    68    20    21    2
    69    29    30    1
    70    12     3   am
    71     4     3    2
    72     3     2    1
    73    30    34   am
    74    30    31    2
    75    34    35    1
    76    38    35    1
    77    38    39    1
    78     2     1    1
    79     2     5    1
    80    35    36    1
    81    10     8   ar
    82    10    11   ar
    83     8     6   ar
    84    41    39   ar
    85    41    43   ar
    86    39    40   ar
    87    11     9   ar
    88     5     6    1
    89     6     7   ar
    90    36    37    2
    91    36    46   am
    92    43    44   ar
    93     9     7   ar
    94    40    42   ar
    95    46    47    1
    96    44    42   ar
    97    44    45    1
    98    49    48    2
    99    51    50    1
   100    51    52    1
   101    47    50    1
   102    47    48    1
   103    53    52    1
   104    53    54    1
