@<TRIPOS>MOLECULE
tmp/1o3fA00.pdb
 179 182 0 0 0
SMALL
GASTEIGER

@<TRIPOS>ATOM
      1  N         50.8030    4.2100   36.8910 N.3    24  PHE24      -0.1227
      2  CA        49.4510    3.6090   36.7260 C.3    24  PHE24       0.1736
      3  C         48.9030    3.9060   35.3100 C.2    24  PHE24       0.2595
      4  O         47.9770    3.2390   34.8900 O.2    24  PHE24      -0.2718
      5  CB        48.4810    4.1310   37.8190 C.3    24  PHE24       0.0547
      6  CG        48.1780    5.6080   37.8040 C.ar   24  PHE24      -0.0202
      7  CD1       48.9210    6.4820   38.5590 C.ar   24  PHE24      -0.0042
      8  CD2       47.1440    6.0690   37.0240 C.ar   24  PHE24      -0.0042
      9  CE1       48.6360    7.8280   38.5380 C.ar   24  PHE24      -0.0003
     10  CE2       46.8640    7.4120   37.0070 C.ar   24  PHE24      -0.0003
     11  CZ        47.6020    8.2960   37.7580 C.ar   24  PHE24      -0.0000
     12  N         49.4230    4.8610   34.5810 N.am   25  CYS25      -0.1970
     13  CA        48.9100    5.1380   33.2070 C.3    25  CYS25       0.1712
     14  C         49.9420    5.9390   32.4410 C.2    25  CYS25       0.2296
     15  O         50.8620    6.4980   33.0210 O.2    25  CYS25      -0.2864
     16  CB        47.6090    5.9500   33.2540 C.3    25  CYS25       0.0983
     17  SG        46.0230    5.0790   33.5180 S.3    25  CYS25      -0.0798
     18  N         39.5330    7.4250   32.1540 N.3    40  HIS40      -0.1226
     19  CA        39.5070    6.4120   33.2270 C.3    40  HIS40       0.1752
     20  C         40.8130    6.3710   34.0050 C.2    40  HIS40       0.2596
     21  O         40.8950    5.6390   34.9710 O.2    40  HIS40      -0.2718
     22  CB        39.1580    5.0110   32.6290 C.3    40  HIS40       0.0759
     23  CG        40.2280    4.1990   31.8950 C.ar   40  HIS40       0.0818
     24  ND1       40.3810    4.0470   30.6020 N.ar   40  HIS40      -0.2268
     25  CD2       41.2280    3.4410   32.4980 C.ar   40  HIS40       0.1154
     26  CE1       41.3860    3.2600   30.3840 C.ar   40  HIS40       0.1986
     27  NE2       41.8970    2.8920   31.5160 N.ar   40  HIS40      -0.2212
     28  N         41.8160    7.1190   33.6260 N.am   41  CYS41      -0.1956
     29  CA        43.0900    7.0920   34.4100 C.3    41  CYS41       0.1843
     30  C         43.0190    8.1950   35.4920 C.2    41  CYS41       0.2625
     31  O         43.9390    8.4350   36.2480 O.2    41  CYS41      -0.2714
     32  CB        44.2450    7.4230   33.5450 C.3    41  CYS41       0.0997
     33  SG        44.7270    6.1340   32.3870 S.3    41  CYS41      -0.0797
     34  N         41.9190    8.8690   35.5640 N.am   42  TYR42      -0.1960
     35  CA        41.7900    9.9450   36.5720 C.3    42  TYR42       0.1771
     36  C         41.8590    9.5770   38.0540 C.2    42  TYR42       0.2619
     37  O         41.2590    8.6220   38.4780 O.2    42  TYR42      -0.2715
     38  CB        40.4380   10.6780   36.3330 C.3    42  TYR42       0.0574
     39  CG        40.2470   11.7130   37.4270 C.ar   42  TYR42      -0.0198
     40  CD1       39.5740   11.3640   38.5790 C.ar   42  TYR42      -0.0009
     41  CD2       40.7740   12.9640   37.2990 C.ar   42  TYR42      -0.0009
     42  CE1       39.4310   12.2590   39.6040 C.ar   42  TYR42       0.0417
     43  CE2       40.6310   13.8590   38.3230 C.ar   42  TYR42       0.0417
     44  CZ        39.9620   13.5180   39.4820 C.ar   42  TYR42       0.1957
     45  OH        39.8430   14.4500   40.4900 O.3    42  TYR42      -0.2866
     46  N         42.5870   10.3320   38.8180 N.am   43  LYS43      -0.1977
     47  CA        42.6870   10.0930   40.2770 C.3    43  LYS43       0.1596
     48  C         43.2950   11.3910   40.8000 C.2    43  LYS43       0.2287
     49  O         43.6890   12.2490   40.0210 O.2    43  LYS43      -0.2864
     50  CB        43.5740    8.9310   40.6070 C.3    43  LYS43       0.0298
     51  CG        45.0270    9.1870   40.3380 C.3    43  LYS43       0.0038
     52  CD        45.8260    8.1440   41.1190 C.3    43  LYS43       0.0206
     53  CE        45.4820    6.7820   40.5810 C.3    43  LYS43       0.1093
     54  NZ        46.3190    5.7890   41.2900 N.3    43  LYS43      -0.1314
     55  N         49.8620   -6.3640   21.2060 N.3   171  ASP171     -0.1225
     56  CA        48.7490   -5.4550   21.6540 C.3   171  ASP171      0.1805
     57  C         49.2670   -4.5590   22.7960 C.2   171  ASP171      0.2598
     58  O         50.3800   -4.7300   23.2800 O.2   171  ASP171     -0.2718
     59  CB        47.6300   -6.3070   22.1960 C.3   171  ASP171      0.1424
     60  CG        46.2790   -5.6510   22.4400 C.2   171  ASP171      0.3668
     61  OD1       45.5100   -6.2980   23.1340 O.co2 171  ASP171     -0.2456
     62  OD2       46.0620   -4.5670   21.9450 O.co2 171  ASP171     -0.2456
     63  N         48.4470   -3.6230   23.1990 N.am  172  SER172     -0.1938
     64  CA        48.8310   -2.7410   24.3060 C.3   172  SER172      0.2055
     65  C         48.1470   -3.5650   25.4460 C.2   172  SER172      0.2643
     66  O         47.4040   -4.5120   25.1910 O.2   172  SER172     -0.2714
     67  CB        48.2360   -1.2790   24.0630 C.3   172  SER172      0.2130
     68  OG        46.8700   -1.4090   23.6880 O.3   172  SER172     -0.2179
     69  N         48.3810   -3.2200   26.6740 N.am  173  CYS173     -0.1953
     70  CA        47.7780   -3.9710   27.7880 C.3   173  CYS173      0.1843
     71  C         47.7050   -3.0470   29.0010 C.2   173  CYS173      0.2625
     72  O         48.0450   -1.8760   28.8840 O.2   173  CYS173     -0.2714
     73  CB        48.6780   -5.2220   28.0210 C.3   173  CYS173      0.0997
     74  SG        48.0020   -6.5430   29.0440 S.3   173  CYS173     -0.0797
     75  N         47.2870   -3.5780   30.1110 N.am  174  GLN174     -0.1963
     76  CA        47.1640   -2.7750   31.3700 C.3   174  GLN174      0.1733
     77  C         48.4960   -2.1510   31.7130 C.2   174  GLN174      0.2616
     78  O         49.5240   -2.8020   31.7010 O.2   174  GLN174     -0.2715
     79  CB        46.6200   -3.7150   32.4750 C.3   174  GLN174      0.0408
     80  CG        47.4130   -3.8670   33.7710 C.3   174  GLN174      0.0908
     81  CD        46.4270   -4.5050   34.7400 C.2   174  GLN174      0.2608
     82  OE1       46.0440   -3.9360   35.7460 O.2   174  GLN174     -0.2717
     83  NE2       45.9760   -5.6920   34.4640 N.am  174  GLN174     -0.0878
     84  N         48.4220   -0.8830   32.0140 N.am  175  GLY175     -0.1955
     85  CA        49.6330   -0.0980   32.3600 C.3   175  GLY175      0.1869
     86  C         49.8950    0.8300   31.1790 C.2   175  GLY175      0.2309
     87  O         50.5590    1.8390   31.3010 O.2   175  GLY175     -0.2863
     88  N         47.2790    2.0720   29.2800 N.3   177  SER177     -0.1217
     89  CA        46.0890    2.9830   29.1960 C.3   177  SER177      0.1889
     90  C         46.5120    4.4490   29.3420 C.2   177  SER177      0.2288
     91  O         47.3710    4.7330   30.1580 O.2   177  SER177     -0.2866
     92  CB        45.0890    2.7350   30.3350 C.3   177  SER177      0.2089
     93  OG        44.4760    1.4590   30.1400 O.3   177  SER177     -0.2183
     94  N         45.3330    4.9910   24.2580 N.3   191  VAL191     -0.1231
     95  CA        45.1130    3.5730   24.6570 C.3   191  VAL191      0.1692
     96  C         43.9010    3.5810   25.6020 C.2   191  VAL191      0.2593
     97  O         43.9370    4.2210   26.6410 O.2   191  VAL191     -0.2718
     98  CB        46.3900    3.0580   25.3660 C.3   191  VAL191      0.0266
     99  CG1       46.2000    1.5740   25.6940 C.3   191  VAL191      0.0020
    100  CG2       47.6870    3.2010   24.5090 C.3   191  VAL191      0.0020
    101  N         42.8660    2.8680   25.2520 N.am  192  SER192     -0.1938
    102  CA        41.6720    2.8630   26.1250 C.3   192  SER192      0.2055
    103  C         41.3350    1.4870   26.7310 C.2   192  SER192      0.2643
    104  O         41.4530    1.3150   27.9360 O.2   192  SER192     -0.2714
    105  CB        40.5030    3.4160   25.2660 C.3   192  SER192      0.2130
    106  OG        39.3690    3.6650   26.0960 O.3   192  SER192     -0.2179
    107  N         40.9180    0.5360   25.9350 N.am  193  TRP193     -0.1959
    108  CA        40.5710   -0.7950   26.5100 C.3   193  TRP193      0.1771
    109  C         40.7720   -1.9010   25.4930 C.2   193  TRP193      0.2620
    110  O         41.2600   -1.6740   24.3940 O.2   193  TRP193     -0.2715
    111  CB        39.0970   -0.7640   26.9630 C.3   193  TRP193      0.0590
    112  CG        38.0690   -0.4150   25.8730 C.ar  193  TRP193      0.0006
    113  CD1       37.7630    0.8440   25.4510 C.ar  193  TRP193      0.0946
    114  CD2       37.2840   -1.2880   25.1980 C.ar  193  TRP193      0.0152
    115  NE1       36.8110    0.6580   24.5510 N.ar  193  TRP193     -0.2442
    116  CE2       36.4430   -0.5830   24.3150 C.ar  193  TRP193      0.0810
    117  CE3       37.2040   -2.6870   25.2530 C.ar  193  TRP193      0.0012
    118  CZ2       35.5300   -1.2660   23.4940 C.ar  193  TRP193      0.0191
    119  CZ3       36.2890   -3.3630   24.4290 C.ar  193  TRP193      0.0001
    120  CH2       35.4570   -2.6590   23.5540 C.ar  193  TRP193      0.0015
    121  N         40.4080   -3.0880   25.8860 N.am  194  GLY194     -0.1940
    122  CA        40.5280   -4.2680   24.9870 C.3   194  GLY194      0.2014
    123  C         40.0630   -5.4630   25.8150 C.2   194  GLY194      0.2640
    124  O         39.8890   -5.2980   27.0040 O.2   194  GLY194     -0.2714
    125  N         39.8620   -6.6030   25.2140 N.am  195  SER195     -0.1935
    126  CA        39.4130   -7.8290   25.9820 C.3   195  SER195      0.2055
    127  C         40.6890   -8.6730   26.1140 C.2   195  SER195      0.2644
    128  O         41.1620   -9.2760   25.1590 O.2   195  SER195     -0.2714
    129  CB        38.3610   -8.5720   25.1750 C.3   195  SER195      0.2130
    130  OG        37.3160   -7.6150   25.0460 O.3   195  SER195     -0.2179
    131  N         41.2100   -8.6550   27.3110 N.am  196  GLY196     -0.1939
    132  CA        42.4630   -9.4050   27.6280 C.3   196  GLY196      0.2014
    133  C         43.5180   -8.5600   26.9230 C.2   196  GLY196      0.2639
    134  O         43.3280   -7.3590   26.7270 O.2   196  GLY196     -0.2714
    135  N         44.5830   -9.1930   26.5790 N.am  197  CYS197     -0.1967
    136  CA        45.6700   -8.5220   25.8780 C.3   197  CYS197      0.1712
    137  C         46.2240   -9.5250   24.9090 C.2   197  CYS197      0.2296
    138  O         46.4980  -10.6560   25.2530 O.2   197  CYS197     -0.2864
    139  CB        46.7960   -8.1000   26.8260 C.3   197  CYS197      0.0983
    140  SG        46.2580   -6.9810   28.1360 S.3   197  CYS197     -0.0798
    141  N         40.5860  -10.0290   19.1140 N.3   202  LYS202     -0.1231
    142  CA        40.1800   -9.0380   20.1600 C.3   202  LYS202      0.1678
    143  C         41.2580   -7.9320   20.1550 C.2   202  LYS202      0.2434
    144  O         42.0940   -7.8660   21.0520 O.2   202  LYS202     -0.2733
    145  CB        40.0950   -9.7390   21.5510 C.3   202  LYS202      0.0284
    146  CG        38.9710  -10.8310   21.5830 C.3   202  LYS202      0.0035
    147  CD        37.5890  -10.1640   21.3150 C.3   202  LYS202      0.0206
    148  CE        36.4640  -11.2030   21.2170 C.3   202  LYS202      0.1093
    149  NZ        35.1770  -10.4890   20.9870 N.3   202  LYS202     -0.1314
    150  N         41.2330   -7.1010   19.1340 N.am  203  PRO203     -0.2718
    151  CA        42.2120   -6.0000   19.0050 C.3   203  PRO203      0.1535
    152  C         42.0540   -4.9170   20.0910 C.2   203  PRO203      0.2599
    153  O         41.0850   -4.8990   20.8260 O.2   203  PRO203     -0.2715
    154  CB        41.9740   -5.5120   17.5680 C.3   203  PRO203      0.0310
    155  CG        40.4730   -5.7540   17.3440 C.3   203  PRO203      0.0237
    156  CD        40.2780   -7.1230   17.9910 C.3   203  PRO203      0.0939
    157  N         43.0130   -4.0300   20.1720 N.am  204  GLY204     -0.1941
    158  CA        42.9100   -2.9510   21.2120 C.3   204  GLY204      0.2014
    159  C         41.9700   -1.8840   20.6370 C.2   204  GLY204      0.2639
    160  O         41.8610   -1.7460   19.4330 O.2   204  GLY204     -0.2714
    161  N         41.3220   -1.1690   21.5190 N.am  205  VAL205     -0.1963
    162  CA        40.3790   -0.0920   21.1450 C.3   205  VAL205      0.1727
    163  C         41.0310    1.1700   21.7100 C.2   205  VAL205      0.2616
    164  O         41.5550    1.2110   22.8200 O.2   205  VAL205     -0.2715
    165  CB        39.0350   -0.3400   21.7840 C.3   205  VAL205      0.0290
    166  CG1       38.0610    0.6610   21.1950 C.3   205  VAL205      0.0023
    167  CG2       38.5550   -1.7290   21.4080 C.3   205  VAL205      0.0023
    168  N         40.9750    2.1660   20.8880 N.am  206  TYR206     -0.1974
    169  CA        41.5570    3.5020   21.1750 C.3   206  TYR206      0.1639
    170  C         40.5740    4.6730   21.0180 C.2   206  TYR206      0.2290
    171  O         39.6490    4.6200   20.2140 O.2   206  TYR206     -0.2864
    172  CB        42.7640    3.6490   20.1940 C.3   206  TYR206      0.0560
    173  CG        43.7380    2.4860   20.4160 C.ar  206  TYR206     -0.0198
    174  CD1       44.7340    2.6200   21.3400 C.ar  206  TYR206     -0.0009
    175  CD2       43.6220    1.2850   19.7320 C.ar  206  TYR206     -0.0009
    176  CE1       45.6040    1.5760   21.5900 C.ar  206  TYR206      0.0417
    177  CE2       44.4880    0.2400   19.9750 C.ar  206  TYR206      0.0417
    178  CZ        45.4860    0.3800   20.9080 C.ar  206  TYR206      0.1957
    179  OH        46.3540   -0.6600   21.1400 O.3   206  TYR206     -0.2866
@<TRIPOS>BOND
     1   155   154    1
     2   155   156    1
     3   154   151    1
     4   156   150    1
     5   151   150    1
     6   151   152    1
     7   141   142    1
     8   150   143   am
     9   160   159    2
    10   175   177   ar
    11   175   173   ar
    12   177   178   ar
    13   152   157   am
    14   152   153    2
    15   143   142    1
    16   143   144    2
    17   142   145    1
    18   157   158    1
    19   172   173    1
    20   172   169    1
    21   171   170    2
    22   173   174   ar
    23   159   158    1
    24   159   161   am
    25   168   169    1
    26   168   163   am
    27   178   179    1
    28   178   176   ar
    29   149   148    1
    30   170   169    1
    31   162   161    1
    32   162   163    1
    33   162   165    1
    34   166   165    1
    35    55    56    1
    36   148   147    1
    37   147   146    1
    38   174   176   ar
    39   167   165    1
    40   145   146    1
    41    56    59    1
    42    56    57    1
    43   163   164    2
    44    62    60   ar
    45    59    60    1
    46    60    61   ar
    47    57    63   am
    48    57    58    2
    49    63    64    1
    50   118   120   ar
    51   118   116   ar
    52   120   119   ar
    53    68    67    1
    54    67    64    1
    55    94    95    1
    56    64    65    1
    57   116   115   ar
    58   116   114   ar
    59   110   109    2
    60   119   117   ar
    61   100    98    1
    62   115   113   ar
    63    95    98    1
    64    95    96    1
    65   137   138    2
    66   137   136    1
    67   122   123    1
    68   122   121    1
    69   130   129    1
    70   128   127    2
    71   129   126    1
    72    66    65    2
    73   114   117   ar
    74   114   112   ar
    75   125   123   am
    76   125   126    1
    77   101    96   am
    78   101   102    1
    79   105   106    1
    80   105   102    1
    81    98    99    1
    82    65    69   am
    83   113   112   ar
    84   109   121   am
    85   109   108    1
    86    96    97    2
    87   123   124    2
    88   112   111    1
    89   136   135    1
    90   136   139    1
    91   107   108    1
    92   107   103   am
    93   126   127    1
    94   127   131   am
    95   102   103    1
    96   108   111    1
    97   135   133   am
    98    69    70    1
    99   134   133    2
   100   103   104    2
   101   139   140    1
   102   133   132    1
   103   131   132    1
   104    70    73    1
   105    70    71    1
   106    73    74    1
   107   140    74    1
   108    72    71    2
   109    71    75   am
   110    89    88    1
   111    89    90    1
   112    89    92    1
   113    90    91    2
   114    75    76    1
   115    93    92    1
   116    26    24   ar
   117    26    27   ar
   118    24    23   ar
   119    86    87    2
   120    86    85    1
   121    76    77    1
   122    76    79    1
   123    27    25   ar
   124    78    77    2
   125    77    84   am
   126    23    25   ar
   127    23    22    1
   128    84    85    1
   129    18    19    1
   130    33    17    1
   131    33    32    1
   132    14    15    2
   133    14    13    1
   134    79    80    1
   135    22    19    1
   136    13    16    1
   137    13    12    1
   138    19    20    1
   139    16    17    1
   140    32    29    1
   141    28    20   am
   142    28    29    1
   143    80    81    1
   144    20    21    2
   145    29    30    1
   146    83    81   am
   147    12     3   am
   148    81    82    2
   149     4     3    2
   150     3     2    1
   151    30    34   am
   152    30    31    2
   153    34    35    1
   154    38    35    1
   155    38    39    1
   156    35    36    1
   157     2     1    1
   158     2     5    1
   159    10     8   ar
   160    10    11   ar
   161     8     6   ar
   162    41    39   ar
   163    41    43   ar
   164    39    40   ar
   165    11     9   ar
   166     6     5    1
   167     6     7   ar
   168    36    37    2
   169    36    46   am
   170    43    44   ar
   171     9     7   ar
   172    40    42   ar
   173    46    47    1
   174    44    42   ar
   175    44    45    1
   176    49    48    2
   177    47    50    1
   178    47    48    1
   179    51    50    1
   180    51    52    1
   181    53    52    1
   182    53    54    1
