@<TRIPOS>MOLECULE
tmp/1o3lA00.pdb
 134 132 0 0 0
SMALL
GASTEIGER

@<TRIPOS>ATOM
      1  N         49.4680    4.8840   34.4570 N.3    25  CYS25      -0.1235
      2  CA        48.9300    5.1540   33.0960 C.3    25  CYS25       0.1677
      3  C         49.9470    5.9910   32.3160 C.2    25  CYS25       0.2270
      4  O         50.8830    6.5240   32.8970 O.2    25  CYS25      -0.2867
      5  CB        47.6230    5.9810   33.1760 C.3    25  CYS25       0.0956
      6  SG        46.1010    5.0430   33.3620 S.3    25  CYS25      -0.0801
      7  N         39.5570    7.3470   32.1470 N.3    40  HIS40      -0.1241
      8  CA        39.5130    6.2720   33.1780 C.3    40  HIS40       0.1621
      9  C         40.8150    6.1550   33.9730 C.2    40  HIS40       0.2264
     10  O         40.9140    5.3090   34.8430 O.2    40  HIS40      -0.2867
     11  CB        39.1510    4.8990   32.5240 C.3    40  HIS40       0.0745
     12  CG        40.2530    4.0790   31.8110 C.ar   40  HIS40       0.0817
     13  ND1       40.4710    4.0060   30.5130 N.ar   40  HIS40      -0.2268
     14  CD2       41.2180    3.2370   32.3900 C.ar   40  HIS40       0.1154
     15  CE1       41.4680    3.2000   30.2680 C.ar   40  HIS40       0.1986
     16  NE2       41.9240    2.7300   31.3980 N.ar   40  HIS40      -0.2212
     17  N         49.8760   -6.1870   21.0490 N.3   171  ASP171     -0.1225
     18  CA        48.7640   -5.2580   21.4810 C.3   171  ASP171      0.1805
     19  C         49.2240   -4.3720   22.6570 C.2   171  ASP171      0.2598
     20  O         50.2980   -4.5690   23.2130 O.2   171  ASP171     -0.2718
     21  CB        47.5860   -6.1310   21.9870 C.3   171  ASP171      0.1424
     22  CG        46.2060   -5.4720   22.1270 C.2   171  ASP171      0.3668
     23  OD1       45.3760   -6.1670   22.6870 O.co2 171  ASP171     -0.2456
     24  OD2       46.0560   -4.3530   21.6770 O.co2 171  ASP171     -0.2456
     25  N         48.4030   -3.4170   23.0160 N.am  172  SER172     -0.1938
     26  CA        48.7300   -2.5420   24.1700 C.3   172  SER172      0.2055
     27  C         47.9960   -3.3690   25.2870 C.2   172  SER172      0.2643
     28  O         47.2980   -4.3510   25.0380 O.2   172  SER172     -0.2714
     29  CB        48.1320   -1.1030   23.9400 C.3   172  SER172      0.2130
     30  OG        46.7680   -1.2250   23.5070 O.3   172  SER172     -0.2179
     31  N         48.1670   -2.9510   26.5010 N.am  173  CYS173     -0.1953
     32  CA        47.5300   -3.6610   27.6620 C.3   173  CYS173      0.1843
     33  C         47.4320   -2.6860   28.8500 C.2   173  CYS173      0.2625
     34  O         47.8720   -1.5440   28.7530 O.2   173  CYS173     -0.2714
     35  CB        48.3950   -4.8720   28.0680 C.3   173  CYS173      0.0997
     36  SG        47.5970   -6.1460   29.0710 S.3   173  CYS173     -0.0797
     37  N         46.8710   -3.1910   29.9170 N.am  174  GLN174     -0.1963
     38  CA        46.6940   -2.3770   31.1720 C.3   174  GLN174      0.1733
     39  C         48.0690   -1.7430   31.4760 C.2   174  GLN174      0.2616
     40  O         49.1260   -2.3690   31.3670 O.2   174  GLN174     -0.2715
     41  CB        46.2250   -3.3390   32.2970 C.3   174  GLN174      0.0408
     42  CG        46.0900   -2.6690   33.6870 C.3   174  GLN174      0.0908
     43  CD        45.5790   -3.7540   34.6490 C.2   174  GLN174      0.2608
     44  OE1       45.7050   -4.9320   34.3740 O.2   174  GLN174     -0.2717
     45  NE2       45.0060   -3.4250   35.7680 N.am  174  GLN174     -0.0878
     46  N         48.0220   -0.5060   31.8290 N.am  175  GLY175     -0.1955
     47  CA        49.3000    0.1860   32.1490 C.3   175  GLY175      0.1869
     48  C         49.6960    1.0900   31.0100 C.2   175  GLY175      0.2309
     49  O         50.4100    2.0530   31.2170 O.2   175  GLY175     -0.2863
     50  N         47.2540    2.3870   29.0690 N.3   177  SER177     -0.1217
     51  CA        46.0600    3.3060   28.9870 C.3   177  SER177      0.1889
     52  C         46.4600    4.7490   29.1380 C.2   177  SER177      0.2288
     53  O         47.2940    5.0260   29.9870 O.2   177  SER177     -0.2866
     54  CB        45.0570    2.9910   30.1000 C.3   177  SER177      0.2089
     55  OG        44.4720    1.7390   29.7220 O.3   177  SER177     -0.2183
     56  N         45.3200    5.1820   24.1220 N.3   191  VAL191     -0.1231
     57  CA        45.1090    3.7660   24.5070 C.3   191  VAL191      0.1692
     58  C         43.9070    3.7640   25.4920 C.2   191  VAL191      0.2593
     59  O         43.9730    4.4160   26.5290 O.2   191  VAL191     -0.2718
     60  CB        46.3690    3.2380   25.2150 C.3   191  VAL191      0.0266
     61  CG1       46.1440    1.7880   25.6620 C.3   191  VAL191      0.0020
     62  CG2       47.6140    3.4050   24.2860 C.3   191  VAL191      0.0020
     63  N         42.8700    3.0390   25.1620 N.am  192  SER192     -0.1938
     64  CA        41.6930    3.0150   26.0510 C.3   192  SER192      0.2055
     65  C         41.3290    1.6080   26.5820 C.2   192  SER192      0.2643
     66  O         41.5420    1.3290   27.7530 O.2   192  SER192     -0.2714
     67  CB        40.5530    3.6970   25.2100 C.3   192  SER192      0.2130
     68  OG        39.3220    3.7400   25.9470 O.3   192  SER192     -0.2179
     69  N         40.8140    0.7260   25.7520 N.am  193  TRP193     -0.1959
     70  CA        40.4470   -0.6190   26.2730 C.3   193  TRP193      0.1771
     71  C         40.5750   -1.7050   25.2180 C.2   193  TRP193      0.2620
     72  O         40.9910   -1.4410   24.0970 O.2   193  TRP193     -0.2715
     73  CB        38.9820   -0.5810   26.7850 C.3   193  TRP193      0.0590
     74  CG        37.9510   -0.2110   25.6990 C.ar  193  TRP193      0.0006
     75  CD1       37.6580    1.0440   25.2780 C.ar  193  TRP193      0.0946
     76  CD2       37.1440   -1.0720   25.0370 C.ar  193  TRP193      0.0152
     77  NE1       36.6950    0.8690   24.3950 N.ar  193  TRP193     -0.2442
     78  CE2       36.3050   -0.3630   24.1690 C.ar  193  TRP193      0.0810
     79  CE3       37.0520   -2.4560   25.1050 C.ar  193  TRP193      0.0012
     80  CZ2       35.3570   -1.0200   23.3600 C.ar  193  TRP193      0.0191
     81  CZ3       36.1100   -3.1310   24.2950 C.ar  193  TRP193      0.0001
     82  CH2       35.2680   -2.4060   23.4290 C.ar  193  TRP193      0.0015
     83  N         40.2290   -2.8970   25.6160 N.am  194  GLY194     -0.1940
     84  CA        40.2650   -4.1060   24.7460 C.3   194  GLY194      0.2014
     85  C         39.8430   -5.3000   25.6200 C.2   194  GLY194      0.2640
     86  O         39.7510   -5.1610   26.8240 O.2   194  GLY194     -0.2714
     87  N         39.5940   -6.4300   24.9990 N.am  195  SER195     -0.1935
     88  CA        39.1840   -7.6740   25.7470 C.3   195  SER195      0.2055
     89  C         40.4830   -8.4500   25.9550 C.2   195  SER195      0.2644
     90  O         41.0000   -9.0370   25.0040 O.2   195  SER195     -0.2714
     91  CB        38.2070   -8.5110   24.9150 C.3   195  SER195      0.2130
     92  OG        37.0320   -7.7010   24.8350 O.3   195  SER195     -0.2179
     93  N         40.9690   -8.4080   27.1670 N.am  196  GLY196     -0.1939
     94  CA        42.2330   -9.1310   27.4770 C.3   196  GLY196      0.2014
     95  C         43.2660   -8.2940   26.7320 C.2   196  GLY196      0.2639
     96  O         43.0020   -7.1350   26.4130 O.2   196  GLY196     -0.2714
     97  N         44.3880   -8.8920   26.4910 N.am  197  CYS197     -0.1967
     98  CA        45.4460   -8.1850   25.7630 C.3   197  CYS197      0.1712
     99  C         46.0310   -9.2420   24.8630 C.2   197  CYS197      0.2296
    100  O         46.2600  -10.3640   25.2760 O.2   197  CYS197     -0.2864
    101  CB        46.4950   -7.6490   26.7340 C.3   197  CYS197      0.0983
    102  SG        45.8780   -6.5370   28.0320 S.3   197  CYS197     -0.0798
    103  N         40.5130   -9.7840   18.9740 N.3   202  LYS202     -0.1245
    104  CA        40.1440   -8.7880   20.0420 C.3   202  LYS202      0.1561
    105  C         41.2390   -7.7050   20.0540 C.2   202  LYS202      0.2260
    106  O         42.0520   -7.6550   20.9710 O.2   202  LYS202     -0.2867
    107  CB        40.0960   -9.4690   21.4280 C.3   202  LYS202      0.0271
    108  CG        38.9520  -10.5200   21.5130 C.3   202  LYS202      0.0035
    109  CD        37.5510   -9.8350   21.3670 C.3   202  LYS202      0.0206
    110  CE        36.4380  -10.8970   21.5170 C.3   202  LYS202      0.1093
    111  NZ        35.1260  -10.2860   21.1810 N.3   202  LYS202     -0.1314
    112  N         42.9530   -3.8160   20.0680 N.3   204  GLY204     -0.1210
    113  CA        42.7740   -2.7270   21.0700 C.3   204  GLY204      0.1956
    114  C         41.8580   -1.6620   20.4730 C.2   204  GLY204      0.2612
    115  O         41.7770   -1.5030   19.2640 O.2   204  GLY204     -0.2717
    116  N         41.2060   -0.9640   21.3680 N.am  205  VAL205     -0.1965
    117  CA        40.2600    0.1290   21.0270 C.3   205  VAL205      0.1727
    118  C         40.9150    1.3630   21.6560 C.2   205  VAL205      0.2616
    119  O         41.3740    1.3890   22.7970 O.2   205  VAL205     -0.2715
    120  CB        38.8780   -0.1910   21.6380 C.3   205  VAL205      0.0290
    121  CG1       37.8890    0.8190   21.0590 C.3   205  VAL205      0.0023
    122  CG2       38.3980   -1.6130   21.2220 C.3   205  VAL205      0.0023
    123  N         40.9070    2.3560   20.8290 N.am  206  TYR206     -0.1974
    124  CA        41.4960    3.6920   21.0940 C.3   206  TYR206      0.1639
    125  C         40.5580    4.8560   20.9170 C.2   206  TYR206      0.2290
    126  O         39.6950    4.8080   20.0520 O.2   206  TYR206     -0.2864
    127  CB        42.7180    3.8650   20.0990 C.3   206  TYR206      0.0560
    128  CG        43.6850    2.6890   20.2500 C.ar  206  TYR206     -0.0198
    129  CD1       44.7100    2.8060   21.1660 C.ar  206  TYR206     -0.0009
    130  CD2       43.5580    1.4900   19.5230 C.ar  206  TYR206     -0.0009
    131  CE1       45.5840    1.7610   21.3610 C.ar  206  TYR206      0.0417
    132  CE2       44.4410    0.4380   19.7240 C.ar  206  TYR206      0.0417
    133  CZ        45.4680    0.5700   20.6550 C.ar  206  TYR206      0.1957
    134  OH        46.3510   -0.4600   20.8870 O.3   206  TYR206     -0.2866
@<TRIPOS>BOND
     1   103   104    1
     2   115   114    2
     3   130   132   ar
     4   130   128   ar
     5   132   133   ar
     6   104   105    1
     7   104   107    1
     8   126   125    2
     9   105   106    2
    10   112   113    1
    11   127   128    1
    12   127   124    1
    13   128   129   ar
    14   114   113    1
    15   114   116   am
    16   133   134    1
    17   133   131   ar
    18   123   124    1
    19   123   118   am
    20   125   124    1
    21   117   116    1
    22   117   120    1
    23   117   118    1
    24    17    18    1
    25   121   120    1
    26   129   131   ar
    27   111   110    1
    28   122   120    1
    29   109   108    1
    30   109   110    1
    31   107   108    1
    32    18    21    1
    33    18    19    1
    34   118   119    2
    35    24    22   ar
    36    21    22    1
    37    22    23   ar
    38    19    25   am
    39    19    20    2
    40    25    26    1
    41    80    82   ar
    42    80    78   ar
    43    82    81   ar
    44    30    29    1
    45    29    26    1
    46    72    71    2
    47    56    57    1
    48    78    77   ar
    49    78    76   ar
    50    26    27    1
    51    62    60    1
    52    81    79   ar
    53    77    75   ar
    54    57    60    1
    55    57    58    1
    56    84    83    1
    57    84    85    1
    58    92    91    1
    59    99   100    2
    60    99    98    1
    61    91    88    1
    62    87    85   am
    63    87    88    1
    64    90    89    2
    65    76    79   ar
    66    76    74   ar
    67    28    27    2
    68    63    58   am
    69    63    64    1
    70    67    68    1
    71    67    64    1
    72    60    61    1
    73    71    83   am
    74    71    70    1
    75    75    74   ar
    76    27    31   am
    77    58    59    2
    78    85    86    2
    79    74    73    1
    80    88    89    1
    81    69    70    1
    82    69    65   am
    83    98    97    1
    84    98   101    1
    85    89    93   am
    86    64    65    1
    87    70    73    1
    88    96    95    2
    89    97    95   am
    90    31    32    1
    91    65    66    2
    92    95    94    1
    93   101   102    1
    94    93    94    1
    95    32    35    1
    96    32    33    1
    97   102    36    1
    98    35    36    1
    99    34    33    2
   100    33    37   am
   101    51    50    1
   102    51    52    1
   103    51    54    1
   104    52    53    2
   105    55    54    1
   106    37    38    1
   107    15    13   ar
   108    15    16   ar
   109    13    12   ar
   110    48    49    2
   111    48    47    1
   112    38    39    1
   113    38    41    1
   114    40    39    2
   115    16    14   ar
   116    39    46   am
   117    12    14   ar
   118    12    11    1
   119    46    47    1
   120     7     8    1
   121    41    42    1
   122     3     4    2
   123     3     2    1
   124    11     8    1
   125     2     5    1
   126     2     1    1
   127     5     6    1
   128     8     9    1
   129    42    43    1
   130     9    10    2
   131    44    43    2
   132    43    45   am
