@<TRIPOS>MOLECULE
tmp/1o3oA00.pdb
 134 133 0 0 0
SMALL
GASTEIGER

@<TRIPOS>ATOM
      1  N         49.3440    4.5440   34.4900 N.3    25  CYS25      -0.1235
      2  CA        48.8170    4.8650   33.1170 C.3    25  CYS25       0.1677
      3  C         49.8510    5.6510   32.3440 C.2    25  CYS25       0.2270
      4  O         50.8130    6.1310   32.9200 O.2    25  CYS25      -0.2867
      5  CB        47.5470    5.7260   33.2010 C.3    25  CYS25       0.0956
      6  SG        45.9870    4.8250   33.4210 S.3    25  CYS25      -0.0801
      7  N         39.6530    7.1630   32.1850 N.3    40  HIS40      -0.1241
      8  CA        39.6310    6.0310   33.1290 C.3    40  HIS40       0.1621
      9  C         40.9260    5.9960   33.9630 C.2    40  HIS40       0.2264
     10  O         41.0010    5.1880   34.8670 O.2    40  HIS40      -0.2867
     11  CB        39.4270    4.6970   32.3890 C.3    40  HIS40       0.0745
     12  CG        40.5240    3.9740   31.6050 C.ar   40  HIS40       0.0817
     13  ND1       40.7350    3.9610   30.3180 N.ar   40  HIS40      -0.2268
     14  CD2       41.4770    3.1510   32.1650 C.ar   40  HIS40       0.1154
     15  CE1       41.7560    3.1730   30.0870 C.ar   40  HIS40       0.1986
     16  NE2       42.2150    2.6720   31.1980 N.ar   40  HIS40      -0.2212
     17  N         49.6200   -6.1190   20.5680 N.3   171  ASP171     -0.1225
     18  CA        48.5210   -5.2130   21.0240 C.3   171  ASP171      0.1805
     19  C         48.9760   -4.3560   22.2380 C.2   171  ASP171      0.2598
     20  O         50.0540   -4.5770   22.7780 O.2   171  ASP171     -0.2718
     21  CB        47.3540   -6.1280   21.4630 C.3   171  ASP171      0.1424
     22  CG        46.0410   -5.4320   21.7840 C.2   171  ASP171      0.3668
     23  OD1       45.1790   -6.0800   22.3520 O.co2 171  ASP171     -0.2456
     24  OD2       45.8300   -4.2720   21.4880 O.co2 171  ASP171     -0.2456
     25  N         48.1820   -3.3960   22.6670 N.am  172  SER172     -0.1938
     26  CA        48.5510   -2.6040   23.8330 C.3   172  SER172      0.2055
     27  C         47.8400   -3.4730   24.9210 C.2   172  SER172      0.2643
     28  O         47.0740   -4.3930   24.6400 O.2   172  SER172     -0.2714
     29  CB        47.9760   -1.1490   23.7520 C.3   172  SER172      0.2130
     30  OG        46.5850   -1.2240   23.4430 O.3   172  SER172     -0.2179
     31  N         48.0660   -3.2010   26.1630 N.am  173  CYS173     -0.1953
     32  CA        47.4730   -3.9520   27.2800 C.3   173  CYS173      0.1843
     33  C         47.3590   -3.0470   28.5400 C.2   173  CYS173      0.2625
     34  O         47.7040   -1.8560   28.5090 O.2   173  CYS173     -0.2714
     35  CB        48.3890   -5.1760   27.5230 C.3   173  CYS173      0.0997
     36  SG        47.6530   -6.5490   28.4460 S.3   173  CYS173     -0.0797
     37  N         46.8980   -3.6110   29.6300 N.am  174  GLN174     -0.1963
     38  CA        46.7520   -2.8280   30.8800 C.3   174  GLN174      0.1733
     39  C         48.0940   -2.2040   31.2320 C.2   174  GLN174      0.2616
     40  O         49.1390   -2.8350   31.1210 O.2   174  GLN174     -0.2715
     41  CB        46.2840   -3.7210   32.0270 C.3   174  GLN174      0.0408
     42  CG        47.2530   -4.8260   32.4240 C.3   174  GLN174      0.0908
     43  CD        46.7170   -5.3810   33.7410 C.2   174  GLN174      0.2608
     44  OE1       47.2100   -6.3970   34.1800 O.2   174  GLN174     -0.2717
     45  NE2       45.7560   -4.7880   34.3990 N.am  174  GLN174     -0.0878
     46  N         48.0790   -0.9790   31.6630 N.am  175  GLY175     -0.1955
     47  CA        49.3590   -0.2950   32.0090 C.3   175  GLY175      0.1869
     48  C         49.6610    0.6650   30.8630 C.2   175  GLY175      0.2309
     49  O         50.2950    1.6860   31.0540 O.2   175  GLY175     -0.2863
     50  N         47.2260    2.0190   29.1380 N.3   177  SER177     -0.1217
     51  CA        46.0650    2.9630   29.1930 C.3   177  SER177      0.1889
     52  C         46.4330    4.4270   29.2690 C.2   177  SER177      0.2288
     53  O         47.2890    4.7530   30.0650 O.2   177  SER177     -0.2866
     54  CB        45.1430    2.6610   30.4550 C.3   177  SER177      0.2089
     55  OG        44.3330    1.5360   30.1100 O.3   177  SER177     -0.2183
     56  N         45.2100    5.0870   24.2530 N.3   191  VAL191     -0.1231
     57  CA        44.9470    3.6540   24.5560 C.3   191  VAL191      0.1692
     58  C         43.7440    3.6500   25.5300 C.2   191  VAL191      0.2593
     59  O         43.8130    4.2360   26.6110 O.2   191  VAL191     -0.2718
     60  CB        46.2040    3.0320   25.2140 C.3   191  VAL191      0.0266
     61  CG1       45.9200    1.5610   25.4300 C.3   191  VAL191      0.0020
     62  CG2       47.4550    3.2720   24.3400 C.3   191  VAL191      0.0020
     63  N         42.6870    2.9820   25.1510 N.am  192  SER192     -0.1938
     64  CA        41.4770    2.9290   26.0000 C.3   192  SER192      0.2055
     65  C         41.1230    1.5410   26.4750 C.2   192  SER192      0.2643
     66  O         41.2560    1.3160   27.6770 O.2   192  SER192     -0.2714
     67  CB        40.3810    3.5670   25.1490 C.3   192  SER192      0.2130
     68  OG        39.2380    3.7040   25.9710 O.3   192  SER192     -0.2179
     69  N         40.6960    0.6330   25.6270 N.am  193  TRP193     -0.1959
     70  CA        40.3440   -0.7200   26.1180 C.3   193  TRP193      0.1771
     71  C         40.4920   -1.8020   25.0800 C.2   193  TRP193      0.2620
     72  O         41.0060   -1.5740   23.9920 O.2   193  TRP193     -0.2715
     73  CB        38.9170   -0.6770   26.6150 C.3   193  TRP193      0.0590
     74  CG        37.8880   -0.2370   25.5540 C.ar  193  TRP193      0.0006
     75  CD1       37.5390    1.0210   25.1350 C.ar  193  TRP193      0.0946
     76  CD2       37.0980   -1.1000   24.8870 C.ar  193  TRP193      0.0152
     77  NE1       36.5700    0.9180   24.2500 N.ar  193  TRP193     -0.2442
     78  CE2       36.2610   -0.3440   24.0590 C.ar  193  TRP193      0.0810
     79  CE3       37.0540   -2.4890   24.9180 C.ar  193  TRP193      0.0012
     80  CZ2       35.3400   -1.0360   23.2490 C.ar  193  TRP193      0.0191
     81  CZ3       36.1500   -3.1770   24.1120 C.ar  193  TRP193      0.0001
     82  CH2       35.2940   -2.4450   23.2770 C.ar  193  TRP193      0.0015
     83  N         40.0890   -3.0020   25.3690 N.am  194  GLY194     -0.1940
     84  CA        40.1730   -4.1420   24.4150 C.3   194  GLY194      0.2014
     85  C         39.7240   -5.3580   25.2020 C.2   194  GLY194      0.2640
     86  O         39.4840   -5.1840   26.3760 O.2   194  GLY194     -0.2714
     87  N         39.6000   -6.5420   24.6630 N.am  195  SER195     -0.1935
     88  CA        39.1600   -7.7400   25.4530 C.3   195  SER195      0.2055
     89  C         40.4330   -8.5250   25.6530 C.2   195  SER195      0.2644
     90  O         40.9220   -9.0840   24.6750 O.2   195  SER195     -0.2714
     91  CB        38.1790   -8.5700   24.6600 C.3   195  SER195      0.2130
     92  OG        37.0770   -7.6930   24.4770 O.3   195  SER195     -0.2179
     93  N         40.9810   -8.5720   26.8440 N.am  196  GLY196     -0.1939
     94  CA        42.2400   -9.3360   27.0200 C.3   196  GLY196      0.2014
     95  C         43.2870   -8.5330   26.2200 C.2   196  GLY196      0.2639
     96  O         43.0830   -7.3550   25.8880 O.2   196  GLY196     -0.2714
     97  N         44.3820   -9.1340   25.9090 N.am  197  CYS197     -0.1967
     98  CA        45.4360   -8.4710   25.1500 C.3   197  CYS197      0.1712
     99  C         45.9860   -9.4240   24.1260 C.2   197  CYS197      0.2296
    100  O         46.2370  -10.5780   24.4350 O.2   197  CYS197     -0.2864
    101  CB        46.5270   -8.0480   26.1130 C.3   197  CYS197      0.0983
    102  SG        45.9330   -6.9520   27.4300 S.3   197  CYS197     -0.0798
    103  N         40.4460   -9.6960   18.4980 N.3   202  LYS202     -0.1231
    104  CA        40.0430   -8.7390   19.5670 C.3   202  LYS202      0.1678
    105  C         41.0900   -7.6250   19.5090 C.2   202  LYS202      0.2434
    106  O         42.0030   -7.6190   20.3310 O.2   202  LYS202     -0.2733
    107  CB        40.0910   -9.4030   20.9490 C.3   202  LYS202      0.0284
    108  CG        39.0500  -10.5380   21.0880 C.3   202  LYS202      0.0035
    109  CD        37.6820   -9.9070   20.8540 C.3   202  LYS202      0.0206
    110  CE        36.5980  -10.9510   21.0370 C.3   202  LYS202      0.1093
    111  NZ        35.2920  -10.2790   20.8220 N.3   202  LYS202     -0.1314
    112  N         41.0280   -6.6970   18.5880 N.am  203  PRO203     -0.2718
    113  CA        42.0430   -5.6190   18.4850 C.3   203  PRO203      0.1535
    114  C         41.8870   -4.5470   19.5800 C.2   203  PRO203      0.2599
    115  O         40.9110   -4.5290   20.3160 O.2   203  PRO203     -0.2715
    116  CB        41.8280   -5.1110   17.0550 C.3   203  PRO203      0.0310
    117  CG        40.2930   -5.2200   16.9180 C.3   203  PRO203      0.0237
    118  CD        39.9870   -6.5840   17.5340 C.3   203  PRO203      0.0939
    119  N         42.8190   -3.6390   19.7220 N.am  204  GLY204     -0.1955
    120  CA        42.6820   -2.6020   20.7660 C.3   204  GLY204      0.1869
    121  C         41.7350   -1.5520   20.2720 C.2   204  GLY204      0.2309
    122  O         41.5910   -1.3680   19.0770 O.2   204  GLY204     -0.2863
    123  N         40.7840    2.4950   20.8190 N.3   206  TYR206     -0.1241
    124  CA        41.3810    3.8020   21.1410 C.3   206  TYR206      0.1605
    125  C         40.4320    4.9780   21.0470 C.2   206  TYR206      0.2264
    126  O         39.5290    4.9710   20.2080 O.2   206  TYR206     -0.2867
    127  CB        42.5760    3.9880   20.1330 C.3   206  TYR206      0.0534
    128  CG        43.5230    2.8030   20.2410 C.ar  206  TYR206     -0.0201
    129  CD1       44.5330    2.8760   21.1690 C.ar  206  TYR206     -0.0009
    130  CD2       43.3860    1.6630   19.4860 C.ar  206  TYR206     -0.0009
    131  CE1       45.3870    1.8150   21.3470 C.ar  206  TYR206      0.0417
    132  CE2       44.2450    0.5900   19.6590 C.ar  206  TYR206      0.0417
    133  CZ        45.2470    0.6720   20.6010 C.ar  206  TYR206      0.1957
    134  OH        46.0920   -0.3870   20.8310 O.3   206  TYR206     -0.2866
@<TRIPOS>BOND
     1   117   116    1
     2   117   118    1
     3   116   113    1
     4   118   112    1
     5   113   112    1
     6   113   114    1
     7   103   104    1
     8   112   105   am
     9   122   121    2
    10   130   132   ar
    11   130   128   ar
    12   105   104    1
    13   105   106    2
    14   104   107    1
    15   114   119   am
    16   114   115    2
    17   132   133   ar
    18   119   120    1
    19   127   128    1
    20   127   124    1
    21   126   125    2
    22   128   129   ar
    23   121   120    1
    24    17    18    1
    25   133   134    1
    26   133   131   ar
    27   123   124    1
    28   111   110    1
    29   109   110    1
    30   109   108    1
    31   107   108    1
    32    18    21    1
    33    18    19    1
    34   125   124    1
    35   129   131   ar
    36    21    22    1
    37    24    22   ar
    38    22    23   ar
    39    19    25   am
    40    19    20    2
    41    25    26    1
    42    80    82   ar
    43    80    78   ar
    44    82    81   ar
    45    30    29    1
    46    29    26    1
    47    26    27    1
    48    72    71    2
    49    78    77   ar
    50    78    76   ar
    51    81    79   ar
    52    99   100    2
    53    99    98    1
    54    77    75   ar
    55    56    57    1
    56    62    60    1
    57    84    85    1
    58    84    83    1
    59    92    91    1
    60    57    60    1
    61    57    58    1
    62    28    27    2
    63    91    88    1
    64    87    85   am
    65    87    88    1
    66    90    89    2
    67    76    79   ar
    68    76    74   ar
    69    27    31   am
    70    71    83   am
    71    71    70    1
    72    75    74   ar
    73    67    68    1
    74    67    64    1
    75    98    97    1
    76    98   101    1
    77    63    58   am
    78    63    64    1
    79    85    86    2
    80    60    61    1
    81    88    89    1
    82    58    59    2
    83    74    73    1
    84    69    70    1
    85    69    65   am
    86    89    93   am
    87    96    95    2
    88    97    95   am
    89    64    65    1
    90   101   102    1
    91    70    73    1
    92    31    32    1
    93    95    94    1
    94    65    66    2
    95    93    94    1
    96    32    35    1
    97    32    33    1
    98   102    36    1
    99    35    36    1
   100    34    33    2
   101    33    37   am
   102    50    51    1
   103    51    52    1
   104    51    54    1
   105    52    53    2
   106    37    38    1
   107    15    13   ar
   108    15    16   ar
   109    55    54    1
   110    13    12   ar
   111    48    49    2
   112    48    47    1
   113    38    39    1
   114    38    41    1
   115    40    39    2
   116    16    14   ar
   117    39    46   am
   118    12    14   ar
   119    12    11    1
   120    46    47    1
   121    41    42    1
   122     7     8    1
   123     3     4    2
   124     3     2    1
   125    11     8    1
   126    42    43    1
   127     2     5    1
   128     2     1    1
   129     8     9    1
   130     5     6    1
   131    43    44    2
   132    43    45   am
   133     9    10    2
