@<TRIPOS>MOLECULE
tmp/1o3pB01.pdb
 157 155 0 0 0
SMALL
GASTEIGER

@<TRIPOS>ATOM
      1  N         22.2190   10.5550   21.5980 N.3    29  TYR29      -0.1227
      2  CA        21.6040    9.3680   20.9240 C.3    29  TYR29       0.1736
      3  C         20.1420    9.7140   20.7490 C.2    29  TYR29       0.2595
      4  O         19.5540   10.2950   21.6480 O.2    29  TYR29      -0.2718
      5  CB        21.7630    8.1430   21.8440 C.3    29  TYR29       0.0548
      6  CG        21.3240    6.8240   21.1890 C.ar   29  TYR29      -0.0200
      7  CD1       22.0610    6.2960   20.1620 C.ar   29  TYR29      -0.0009
      8  CD2       20.1860    6.1720   21.6340 C.ar   29  TYR29      -0.0009
      9  CE1       21.6750    5.1150   19.5710 C.ar   29  TYR29       0.0417
     10  CE2       19.8100    4.9950   21.0450 C.ar   29  TYR29       0.0417
     11  CZ        20.5630    4.4680   20.0110 C.ar   29  TYR29       0.1957
     12  OH        20.2140    3.3080   19.3730 O.3    29  TYR29      -0.2866
     13  N         19.6160    9.3400   19.6270 N.am   30  VAL30      -0.1966
     14  CA        18.2010    9.5690   19.2180 C.3    30  VAL30       0.1727
     15  C         17.4510    8.2150   19.2100 C.2    30  VAL30       0.2616
     16  O         16.5920    7.9750   20.0560 O.2    30  VAL30      -0.2715
     17  CB        18.2250   10.1870   17.7960 C.3    30  VAL30       0.0290
     18  CG1       16.8080   10.2960   17.1510 C.3    30  VAL30       0.0023
     19  CG2       18.8820   11.5640   17.8480 C.3    30  VAL30       0.0023
     20  N         17.7820    7.3640   18.2680 N.am   31  CYS31      -0.1968
     21  CA        17.1190    6.0460   18.1610 C.3    31  CYS31       0.1712
     22  C         18.0160    4.9960   17.5430 C.2    31  CYS31       0.2296
     23  O         19.1240    5.2810   17.1050 O.2    31  CYS31      -0.2864
     24  CB        15.8600    6.2090   17.3050 C.3    31  CYS31       0.0983
     25  SG        14.4280    6.9810   18.0890 S.3    31  CYS31      -0.0798
     26  N          8.6870    8.7060   14.3490 N.3    46  HIS46      -0.1226
     27  CA         8.6290    9.6040   15.5370 C.3    46  HIS46       0.1752
     28  C         10.0150    9.9650   16.0270 C.2    46  HIS46       0.2596
     29  O         10.1160   10.9100   16.7830 O.2    46  HIS46      -0.2718
     30  CB         7.8330    8.9630   16.7130 C.3    46  HIS46       0.0759
     31  CG         8.5460    7.9460   17.6330 C.ar   46  HIS46       0.0818
     32  ND1        8.7490    6.6580   17.4970 N.ar   46  HIS46      -0.2268
     33  CD2        9.1040    8.3100   18.8490 C.ar   46  HIS46       0.1154
     34  CE1        9.3770    6.2500   18.5640 C.ar   46  HIS46       0.1986
     35  NE2        9.6200    7.2420   19.3890 N.ar   46  HIS46      -0.2212
     36  N         11.0510    9.2810   15.6290 N.am   47  CYS47      -0.1970
     37  CA        12.4220    9.6300   16.1160 C.3    47  CYS47       0.1712
     38  C         12.9120   10.8870   15.4080 C.2    47  CYS47       0.2296
     39  O         13.7570   11.5880   15.9280 O.2    47  CYS47      -0.2864
     40  CB        13.4090    8.5090   15.7910 C.3    47  CYS47       0.0983
     41  SG        13.1690    6.8730   16.4990 S.3    47  CYS47      -0.0798
     42  N         10.2400   15.5490   15.4710 N.3    50  ASP50      -0.1239
     43  CA        10.4310   16.9090   16.0500 C.3    50  ASP50       0.1674
     44  C         11.7190   17.5660   15.6300 C.2    50  ASP50       0.2266
     45  O         12.0800   18.5470   16.2500 O.2    50  ASP50      -0.2867
     46  CB        10.3640   16.8040   17.5840 C.3    50  ASP50       0.1410
     47  CG         8.9130   16.5350   18.0390 C.2    50  ASP50       0.3668
     48  OD1        8.7150   16.1240   19.1630 O.co2  50  ASP50      -0.2456
     49  OD2        7.9410   16.7260   17.3220 O.co2  50  ASP50      -0.2456
     50  N         21.2340    6.3930   29.5860 N.3   150  TYR150     -0.1241
     51  CA        21.1180    5.1530   28.7700 C.3   150  TYR150      0.1605
     52  C         22.3990    4.3570   29.0970 C.2   150  TYR150      0.2264
     53  O         23.3970    5.0000   29.4340 O.2   150  TYR150     -0.2867
     54  CB        21.1460    5.4530   27.3010 C.3   150  TYR150      0.0534
     55  CG        19.9000    6.1630   26.7340 C.ar  150  TYR150     -0.0201
     56  CD1       18.6500    5.9370   27.2740 C.ar  150  TYR150     -0.0009
     57  CD2       20.0290    7.0120   25.6550 C.ar  150  TYR150     -0.0009
     58  CE1       17.5480    6.5370   26.7400 C.ar  150  TYR150      0.0417
     59  CE2       18.9130    7.6120   25.1230 C.ar  150  TYR150      0.0417
     60  CZ        17.6700    7.3570   25.6810 C.ar  150  TYR150      0.1957
     61  OH        16.4530    7.8790   25.2940 O.3   150  TYR150     -0.2866
     62  N         11.6910   -6.1380   28.3140 N.3   192  ASP192     -0.1225
     63  CA        10.9140   -5.4420   27.2630 C.3   192  ASP192      0.1805
     64  C         11.7780   -4.3410   26.6860 C.2   192  ASP192      0.2598
     65  O         12.9350   -4.1920   27.0610 O.2   192  ASP192     -0.2718
     66  CB         9.6320   -4.8740   27.9470 C.3   192  ASP192      0.1424
     67  CG         8.6500   -4.1500   27.0210 C.2   192  ASP192      0.3668
     68  OD1        8.5550   -4.3380   25.8220 O.co2 192  ASP192     -0.2456
     69  OD2        7.9170   -3.3440   27.5440 O.co2 192  ASP192     -0.2456
     70  N         11.2330   -3.5750   25.7890 N.am  193  SER193     -0.1938
     71  CA        11.9390   -2.4560   25.1540 C.3   193  SER193      0.2055
     72  C         11.5090   -1.2610   26.0020 C.2   193  SER193      0.2643
     73  O         10.4860   -1.3390   26.6770 O.2   193  SER193     -0.2714
     74  CB        11.4530   -2.2930   23.6800 C.3   193  SER193      0.2130
     75  OG        10.0690   -2.6580   23.6690 O.3   193  SER193     -0.2179
     76  N         12.2540   -0.1950   25.9740 N.am  194  CYS194     -0.1953
     77  CA        11.9160    1.0140   26.7560 C.3   194  CYS194      0.1843
     78  C         12.4370    2.2220   25.9700 C.2   194  CYS194      0.2625
     79  O         13.0020    2.0600   24.9030 O.2   194  CYS194     -0.2714
     80  CB        12.5690    0.9740   28.1550 C.3   194  CYS194      0.0997
     81  SG        11.8070    2.0300   29.4020 S.3   194  CYS194     -0.0797
     82  N         12.2550    3.3860   26.5050 N.am  195  GLN195     -0.1963
     83  CA        12.6830    4.6750   25.8940 C.3   195  GLN195      0.1733
     84  C         14.1580    4.5890   25.5300 C.2   195  GLN195      0.2616
     85  O         14.9710    4.1740   26.3460 O.2   195  GLN195     -0.2715
     86  CB        12.3790    5.7460   26.9620 C.3   195  GLN195      0.0408
     87  CG        10.8730    5.6530   27.4090 C.3   195  GLN195      0.0908
     88  CD        10.7150    6.4160   28.7150 C.2   195  GLN195      0.2608
     89  OE1       10.9850    7.5960   28.7370 O.2   195  GLN195     -0.2717
     90  NE2       10.3020    5.8240   29.7930 N.am  195  GLN195     -0.0878
     91  N         14.4910    4.9800   24.3420 N.am  196  GLY196     -0.1955
     92  CA        15.9050    4.9300   23.8780 C.3   196  GLY196      0.1869
     93  C         15.9510    3.7220   22.9410 C.2   196  GLY196      0.2309
     94  O         16.8680    3.5900   22.1610 O.2   196  GLY196     -0.2863
     95  N         13.4480    2.9460   20.6930 N.3   198  SER198     -0.1217
     96  CA        12.6740    3.2410   19.4360 C.3   198  SER198      0.1889
     97  C         13.4630    3.1120   18.1290 C.2   198  SER198      0.2288
     98  O         14.6200    3.4700   18.0910 O.2   198  SER198     -0.2866
     99  CB        12.1550    4.6520   19.4760 C.3   198  SER198      0.2089
    100  OG        11.2630    4.7580   20.5890 O.3   198  SER198     -0.2183
    101  N         10.9050   -1.1710   17.0750 N.3   216  VAL216     -0.1231
    102  CA        10.4140   -0.7650   18.4260 C.3   216  VAL216      0.1692
    103  C          9.6690    0.5570   18.1530 C.2   216  VAL216      0.2593
    104  O         10.2520    1.4560   17.5610 O.2   216  VAL216     -0.2718
    105  CB        11.6460   -0.5900   19.3730 C.3   216  VAL216      0.0266
    106  CG1       11.1430   -0.3610   20.7810 C.3   216  VAL216      0.0020
    107  CG2       12.5430   -1.8610   19.4290 C.3   216  VAL216      0.0020
    108  N          8.4350    0.6790   18.5540 N.am  217  SER217     -0.1938
    109  CA         7.6190    1.9070   18.3350 C.3   217  SER217      0.2055
    110  C          7.1400    2.5780   19.6400 C.2   217  SER217      0.2643
    111  O          7.4950    3.7160   19.8970 O.2   217  SER217     -0.2714
    112  CB         6.3850    1.4840   17.4580 C.3   217  SER217      0.2130
    113  OG         5.6860    2.6540   17.0120 O.3   217  SER217     -0.2179
    114  N          6.3360    1.9050   20.4260 N.am  218  TRP218     -0.1959
    115  CA         5.8300    2.4940   21.7000 C.3   218  TRP218      0.1771
    116  C          5.4380    1.4030   22.7130 C.2   218  TRP218      0.2620
    117  O          5.7390    0.2290   22.5450 O.2   218  TRP218     -0.2715
    118  CB         4.6050    3.4140   21.3640 C.3   218  TRP218      0.0590
    119  CG         3.4500    2.7260   20.6270 C.ar  218  TRP218      0.0006
    120  CD1        3.3420    2.4450   19.2790 C.ar  218  TRP218      0.0946
    121  CD2        2.3140    2.2960   21.2370 C.ar  218  TRP218      0.0152
    122  NE1        2.1690    1.8620   19.1100 N.ar  218  TRP218     -0.2442
    123  CE2        1.5020    1.7460   20.2460 C.ar  218  TRP218      0.0810
    124  CE3        1.8750    2.3200   22.5560 C.ar  218  TRP218      0.0012
    125  CZ2        0.2600    1.2250   20.5910 C.ar  218  TRP218      0.0191
    126  CZ3        0.6370    1.7940   22.8850 C.ar  218  TRP218      0.0001
    127  CH2       -0.1700    1.2470   21.9000 C.ar  218  TRP218      0.0015
    128  N          4.7900    1.7330   23.7820 N.am  219  GLY219     -0.1954
    129  CA         4.3630    0.7360   24.7940 C.3   219  GLY219      0.1869
    130  C          4.0010    1.5710   26.0060 C.2   219  GLY219      0.2309
    131  O          4.4820    2.6820   26.0640 O.2   219  GLY219     -0.2863
    132  N          4.6990    2.4450   29.6930 N.3   221  GLY221     -0.1210
    133  CA         5.7160    2.0620   30.7140 C.3   221  GLY221      0.1956
    134  C          6.7020    1.1010   30.0860 C.2   221  GLY221      0.2612
    135  O          6.8110    1.0760   28.8650 O.2   221  GLY221     -0.2717
    136  N          7.4280    0.3290   30.8480 N.am  222  CYS222     -0.1970
    137  CA         8.3890   -0.6250   30.2740 C.3   222  CYS222      0.1712
    138  C          8.2440   -1.8630   31.0780 C.2   222  CYS222      0.2296
    139  O          8.3420   -1.7830   32.2850 O.2   222  CYS222     -0.2864
    140  CB         9.7460   -0.0710   30.3920 C.3   222  CYS222      0.0983
    141  SG         9.8880    1.4170   29.3930 S.3   222  CYS222     -0.0798
    142  N          4.9700   -4.4980   24.3050 N.3   229  GLY229     -0.1225
    143  CA         5.6730   -3.4020   23.6110 C.3   229  GLY229      0.1811
    144  C          4.9910   -3.4380   22.2740 C.2   229  GLY229      0.2280
    145  O          4.5140   -4.4950   21.9070 O.2   229  GLY229     -0.2866
    146  N          5.2860   -2.7890   18.1050 N.3   231  TYR231     -0.1241
    147  CA         6.2560   -2.6270   17.0290 C.3   231  TYR231      0.1605
    148  C          5.5560   -2.3900   15.6820 C.2   231  TYR231      0.2264
    149  O          4.4430   -2.8600   15.5200 O.2   231  TYR231     -0.2867
    150  CB         7.0990   -3.9220   16.9450 C.3   231  TYR231      0.0534
    151  CG         7.7350   -4.2480   18.2870 C.ar  231  TYR231     -0.0201
    152  CD1        6.9710   -4.7240   19.3380 C.ar  231  TYR231     -0.0009
    153  CD2        9.0830   -4.0390   18.4720 C.ar  231  TYR231     -0.0009
    154  CE1        7.5510   -4.9690   20.5710 C.ar  231  TYR231      0.0417
    155  CE2        9.6620   -4.2850   19.6970 C.ar  231  TYR231      0.0417
    156  CZ         8.9060   -4.7390   20.7500 C.ar  231  TYR231      0.1957
    157  OH         9.5170   -4.9410   21.9690 O.3   231  TYR231     -0.2866
@<TRIPOS>BOND
     1    26    27    1
     2    38    39    2
     3    38    37    1
     4    42    43    1
     5   149   148    2
     6    27    28    1
     7    27    30    1
     8    36    28   am
     9    36    37    1
    10    44    43    1
    11    44    45    2
    12   148   147    1
    13    40    37    1
    14    40    41    1
    15    28    29    2
    16    43    46    1
    17    41    25    1
    18    30    31    1
    19   150   147    1
    20   150   151    1
    21   113   112    1
    22   147   146    1
    23   101   102    1
    24    23    22    2
    25    18    17    1
    26    24    25    1
    27    24    21    1
    28    49    47   ar
    29   112   109    1
    30    32    31   ar
    31    32    34   ar
    32    22    21    1
    33   104   103    2
    34    46    47    1
    35    31    33   ar
    36    17    19    1
    37    17    14    1
    38    47    48   ar
    39    98    97    2
    40    97    96    1
    41   103   102    1
    42   103   108   am
    43    21    20    1
    44    20    15   am
    45   151   153   ar
    46   151   152   ar
    47   109   108    1
    48   109   110    1
    49   102   105    1
    50   153   155   ar
    51    34    35   ar
    52    33    35   ar
    53   122   120   ar
    54   122   123   ar
    55    15    14    1
    56    15    16    2
    57    14    13    1
    58   120   119   ar
    59   152   154   ar
    60    12    11    1
    61   105   107    1
    62   105   106    1
    63    96    99    1
    64    96    95    1
    65    99   100    1
    66     9    11   ar
    67     9     7   ar
    68    13     3   am
    69   110   111    2
    70   110   114   am
    71   155   156   ar
    72    11    10   ar
    73     7     6   ar
    74   123   125   ar
    75   123   121   ar
    76   114   115    1
    77   154   156   ar
    78   125   127   ar
    79   119   121   ar
    80   119   118    1
    81     3     2    1
    82     3     4    2
    83   156   157    1
    84     2     1    1
    85     2     5    1
    86    10     8   ar
    87     6     8   ar
    88     6     5    1
    89   121   124   ar
    90   118   115    1
    91   115   116    1
    92   127   126   ar
    93   145   144    2
    94    94    93    2
    95   144   143    1
    96   117   116    2
    97   124   126   ar
    98   116   128   am
    99    93    92    1
   100   143   142    1
   101    75    74    1
   102    74    71    1
   103   128   129    1
   104    92    91    1
   105    91    84   am
   106   129   130    1
   107    79    78    2
   108    59    57   ar
   109    59    60   ar
   110    71    70    1
   111    71    72    1
   112    61    60    1
   113    84    83    1
   114    84    85    2
   115    57    55   ar
   116    60    58   ar
   117    70    64   am
   118    68    67   ar
   119    83    82    1
   120    83    86    1
   121    78    82   am
   122    78    77    1
   123    76    72   am
   124    76    77    1
   125    72    73    2
   126   130   131    2
   127    64    65    2
   128    64    63    1
   129    55    56   ar
   130    55    54    1
   131    58    56   ar
   132    77    80    1
   133    86    87    1
   134    67    69   ar
   135    67    66    1
   136    63    66    1
   137    63    62    1
   138    54    51    1
   139    87    88    1
   140    80    81    1
   141    88    89    2
   142    88    90   am
   143    51    52    1
   144    51    50    1
   145   135   134    2
   146    52    53    2
   147   141    81    1
   148   141   140    1
   149   132   133    1
   150   134   133    1
   151   134   136   am
   152   137   140    1
   153   137   136    1
   154   137   138    1
   155   138   139    2
