@<TRIPOS>MOLECULE
tmp/1o41A00.pdb
 93 91 0 0 0
SMALL
GASTEIGER

@<TRIPOS>ATOM
      1  N         10.6270   31.4490   19.2380 N.3    14  ARG14      -0.1245
      2  CA        11.0760   30.7320   20.3960 C.3    14  ARG14       0.1563
      3  C         10.3520   31.2720   21.6340 C.2    14  ARG14       0.2260
      4  O          9.9660   30.4900   22.5120 O.2    14  ARG14      -0.2867
      5  CB        12.5740   30.8680   20.5830 C.3    14  ARG14       0.0307
      6  CG        13.0230   30.1710   21.8360 C.3    14  ARG14       0.0489
      7  CD        14.5050   29.9230   21.8190 C.3    14  ARG14       0.2205
      8  NE        15.2530   31.1470   22.0340 N.pl3  14  ARG14      -0.0865
      9  CZ        15.4470   31.7240   23.2240 C.cat  14  ARG14       0.5346
     10  NH1       14.9530   31.2130   24.3470 N.pl3  14  ARG14       0.1354
     11  NH2       16.1830   32.8060   23.2980 N.pl3  14  ARG14       0.1354
     12  N          8.5280   23.3130   15.8370 N.3    34  ARG34      -0.1245
     13  CA         8.3240   24.5730   15.1150 C.3    34  ARG34       0.1563
     14  C          9.5130   24.7870   14.1820 C.2    34  ARG34       0.2260
     15  O         10.4690   24.0110   14.2030 O.2    34  ARG34      -0.2867
     16  CB         8.2510   25.7210   16.1330 C.3    34  ARG34       0.0307
     17  CG         9.5550   25.8920   16.9390 C.3    34  ARG34       0.0489
     18  CD         9.4750   27.0240   17.9580 C.3    34  ARG34       0.2205
     19  NE        10.6100   27.0490   18.8910 N.pl3  34  ARG34      -0.0865
     20  CZ        11.8130   27.5810   18.6320 C.cat  34  ARG34       0.5346
     21  NH1       12.7570   27.5610   19.5660 N.pl3  34  ARG34       0.1354
     22  NH2       12.0830   28.0860   17.4370 N.pl3  34  ARG34       0.1354
     23  N         12.9100   26.6000   13.0020 N.3    36  SER36      -0.1202
     24  CA        13.9580   27.2950   13.7470 C.3    36  SER36       0.2020
     25  C         13.8650   28.7920   13.3500 C.2    36  SER36       0.2619
     26  O         13.5460   29.1210   12.2010 O.2    36  SER36      -0.2717
     27  CB        15.3280   26.7470   13.3500 C.3    36  SER36       0.2103
     28  OG        16.3590   27.6960   13.6140 O.3    36  SER36      -0.2182
     29  N         14.2010   29.6940   14.2600 N.am   37  GLU37      -0.1965
     30  CA        14.1460   31.1260   13.9500 C.3    37  GLU37       0.1733
     31  C         15.1740   31.5200   12.8970 C.2    37  GLU37       0.2617
     32  O         14.9180   32.3770   12.0280 O.2    37  GLU37      -0.2715
     33  CB        14.3980   31.9780   15.1910 C.3    37  GLU37       0.0429
     34  CG        13.2530   31.9660   16.1510 C.3    37  GLU37       0.1163
     35  CD        13.3960   33.0080   17.2250 C.2    37  GLU37       0.3649
     36  OE1       14.5040   33.5630   17.4090 O.co2  37  GLU37      -0.2457
     37  OE2       12.3880   33.2580   17.9110 O.co2  37  GLU37      -0.2457
     38  N         16.3280   30.8760   12.9450 N.am   38  THR38      -0.1951
     39  CA        17.3530   31.2600   12.0160 C.3    38  THR38       0.1897
     40  C         17.9870   30.1720   11.1420 C.2    38  THR38       0.2313
     41  O         18.6170   30.4930   10.1220 O.2    38  THR38      -0.2863
     42  CB        18.4390   32.0570   12.7740 C.3    38  THR38       0.1794
     43  OG1       18.9680   31.2370   13.8350 O.3    38  THR38      -0.2208
     44  CG2       17.8490   33.3980   13.3440 C.3    38  THR38       0.0378
     45  N         14.2090   22.2360   12.0130 N.3    43  TYR43      -0.1227
     46  CA        13.0320   22.3880   12.8610 C.3    43  TYR43       0.1736
     47  C         13.5450   22.4930   14.2920 C.2    43  TYR43       0.2595
     48  O         14.7370   22.3150   14.5480 O.2    43  TYR43      -0.2718
     49  CB        12.0720   21.2060   12.7570 C.3    43  TYR43       0.0548
     50  CG        11.5200   21.0170   11.3810 C.ar   43  TYR43      -0.0200
     51  CD1       11.9950   19.9940   10.5600 C.ar   43  TYR43      -0.0009
     52  CD2       10.5640   21.8860   10.8810 C.ar   43  TYR43      -0.0009
     53  CE1       11.5320   19.8460    9.2640 C.ar   43  TYR43       0.0417
     54  CE2       10.0940   21.7540    9.5990 C.ar   43  TYR43       0.0417
     55  CZ        10.5800   20.7310    8.7850 C.ar   43  TYR43       0.1957
     56  OH        10.1100   20.6120    7.4880 O.3    43  TYR43      -0.2866
     57  N         12.6500   22.7710   15.2240 N.am   44  CYS44      -0.1970
     58  CA        13.0560   22.9120   16.5850 C.3    44  CYS44       0.1712
     59  C         12.0220   22.2100   17.4000 C.2    44  CYS44       0.2296
     60  O         10.8470   22.3810   17.1510 O.2    44  CYS44      -0.2864
     61  CB        13.0930   24.3870   16.9400 C.3    44  CYS44       0.0983
     62  SG        14.4710   24.7760   18.0040 S.3    44  CYS44      -0.0798
     63  N         15.1660   23.3920   24.1400 N.3    60  HIS60      -0.1226
     64  CA        14.9930   23.3980   22.6830 C.3    60  HIS60       0.1752
     65  C         16.0520   22.5160   22.0430 C.2    60  HIS60       0.2596
     66  O         17.2230   22.6170   22.3970 O.2    60  HIS60      -0.2718
     67  CB        15.0960   24.8380   22.1220 C.3    60  HIS60       0.0759
     68  CG        14.1390   25.8060   22.7630 C.ar   60  HIS60       0.0818
     69  ND1       12.8170   25.8870   22.4000 N.ar   60  HIS60      -0.2268
     70  CD2       14.3190   26.7140   23.7500 C.ar   60  HIS60       0.1154
     71  CE1       12.2110   26.8020   23.1390 C.ar   60  HIS60       0.1986
     72  NE2       13.1060   27.3200   23.9730 N.ar   60  HIS60      -0.2212
     73  N         15.6580   21.7060   21.0610 N.am   61  TYR61      -0.1962
     74  CA        16.5690   20.7790   20.3700 C.3    61  TYR61       0.1771
     75  C         16.4250   20.9520   18.8720 C.2    61  TYR61       0.2619
     76  O         15.3300   20.9360   18.3460 O.2    61  TYR61      -0.2715
     77  CB        16.2130   19.3260   20.7260 C.3    61  TYR61       0.0574
     78  CG        16.2330   19.0850   22.2090 C.ar   61  TYR61      -0.0198
     79  CD1       15.0630   19.1780   22.9750 C.ar   61  TYR61      -0.0009
     80  CD2       17.4330   18.8370   22.8780 C.ar   61  TYR61      -0.0009
     81  CE1       15.0860   19.0350   24.3590 C.ar   61  TYR61       0.0417
     82  CE2       17.4660   18.6860   24.2680 C.ar   61  TYR61       0.0417
     83  CZ        16.2870   18.7870   24.9950 C.ar   61  TYR61       0.1957
     84  OH        16.3220   18.6180   26.3490 O.3    61  TYR61      -0.2866
     85  N         17.5260   21.1710   18.1810 N.am   62  LYS62      -0.1977
     86  CA        17.4410   21.3550   16.7460 C.3    62  LYS62       0.1596
     87  C         17.2930   20.0110   16.0100 C.2    62  LYS62       0.2287
     88  O         17.9800   19.0600   16.3000 O.2    62  LYS62      -0.2864
     89  CB        18.6660   22.1010   16.2400 C.3    62  LYS62       0.0298
     90  CG        18.5550   22.4110   14.7510 C.3    62  LYS62       0.0038
     91  CD        19.5480   23.4660   14.3160 C.3    62  LYS62       0.0206
     92  CE        19.1980   24.8080   14.9080 C.3    62  LYS62       0.1093
     93  NZ        20.3880   25.6990   14.8040 N.3    62  LYS62      -0.1314
@<TRIPOS>BOND
     1    56    55    1
     2    55    53   ar
     3    55    54   ar
     4    53    51   ar
     5    54    52   ar
     6    41    40    2
     7    51    50   ar
     8    52    50   ar
     9    40    39    1
    10    50    49    1
    11    45    46    1
    12    39    42    1
    13    39    38    1
    14    32    31    2
    15    26    25    2
    16    49    46    1
    17    42    44    1
    18    42    43    1
    19    46    47    1
    20    31    38   am
    21    31    30    1
    22    23    24    1
    23    25    24    1
    24    25    29   am
    25    27    28    1
    26    27    24    1
    27    30    29    1
    28    30    33    1
    29    14    15    2
    30    14    13    1
    31    47    48    2
    32    47    57   am
    33    91    90    1
    34    91    92    1
    35    90    89    1
    36    93    92    1
    37    13    12    1
    38    13    16    1
    39    33    34    1
    40    57    58    1
    41    87    88    2
    42    87    86    1
    43    16    17    1
    44    34    35    1
    45    89    86    1
    46    58    61    1
    47    58    59    1
    48    86    85    1
    49    17    18    1
    50    61    62    1
    51    60    59    2
    52    35    36   ar
    53    35    37   ar
    54    22    20    1
    55    18    19    1
    56    85    75   am
    57    76    75    2
    58    20    19    2
    59    20    21    1
    60    75    74    1
    61     1     2    1
    62    74    77    1
    63    74    73    1
    64     2     5    1
    65     2     3    1
    66     5     6    1
    67    77    78    1
    68    73    65   am
    69     3     4    2
    70     7     6    1
    71     7     8    1
    72     8     9    2
    73    65    66    2
    74    65    64    1
    75    67    64    1
    76    67    68    1
    77    78    80   ar
    78    78    79   ar
    79    69    68   ar
    80    69    71   ar
    81    64    63    1
    82    68    70   ar
    83    80    82   ar
    84    79    81   ar
    85    71    72   ar
    86     9    11    1
    87     9    10    1
    88    70    72   ar
    89    82    83   ar
    90    81    83   ar
    91    83    84    1
