@<TRIPOS>MOLECULE
tmp/1o42A00.pdb
 137 132 0 0 0
SMALL
GASTEIGER

@<TRIPOS>ATOM
      1  N         10.7160   31.3880   19.2200 N.3    14  ARG14      -0.1245
      2  CA        11.2530   30.7410   20.4060 C.3    14  ARG14       0.1563
      3  C         10.5610   31.3510   21.6550 C.2    14  ARG14       0.2260
      4  O         10.1420   30.5890   22.5170 O.2    14  ARG14      -0.2867
      5  CB        12.7000   30.9930   20.4270 C.3    14  ARG14       0.0307
      6  CG        13.3570   30.6670   21.6280 C.3    14  ARG14       0.0489
      7  CD        14.7010   31.2390   21.5480 C.3    14  ARG14       0.2205
      8  NE        15.4950   30.7220   22.6210 N.pl3  14  ARG14      -0.0865
      9  CZ        16.2460   29.6330   22.5270 C.cat  14  ARG14       0.5346
     10  NH1       16.9040   29.2330   23.5970 N.pl3  14  ARG14       0.1354
     11  NH2       16.4170   28.9940   21.3690 N.pl3  14  ARG14       0.1354
     12  N          8.5890   23.2360   15.9760 N.3    34  ARG34      -0.1245
     13  CA         8.4320   24.4630   15.1970 C.3    34  ARG34       0.1563
     14  C          9.6390   24.6420   14.2530 C.2    34  ARG34       0.2260
     15  O         10.6250   23.9060   14.3010 O.2    34  ARG34      -0.2867
     16  CB         8.3590   25.6370   16.1330 C.3    34  ARG34       0.0307
     17  CG         9.6010   25.7510   17.0680 C.3    34  ARG34       0.0489
     18  CD         9.6120   27.0290   17.9740 C.3    34  ARG34       0.2205
     19  NE        10.7530   26.9930   18.8990 N.pl3  34  ARG34      -0.0865
     20  CZ        11.9380   27.5690   18.6620 C.cat  34  ARG34       0.5346
     21  NH1       12.9130   27.4690   19.5500 N.pl3  34  ARG34       0.1354
     22  NH2       12.1390   28.2670   17.5510 N.pl3  34  ARG34       0.1354
     23  N         12.9510   26.4210   12.9790 N.3    36  SER36      -0.1202
     24  CA        14.0320   27.0670   13.6850 C.3    36  SER36       0.2020
     25  C         14.0760   28.5590   13.2250 C.2    36  SER36       0.2619
     26  O         13.8260   28.8550   12.0880 O.2    36  SER36      -0.2717
     27  CB        15.3540   26.3440   13.2940 C.3    36  SER36       0.2103
     28  OG        16.4840   27.0370   13.7840 O.3    36  SER36      -0.2182
     29  N         14.2830   29.4830   14.1520 N.am   37  GLU37      -0.1965
     30  CA        14.4230   30.9150   13.8380 C.3    37  GLU37       0.1733
     31  C         15.7750   31.1910   13.1500 C.2    37  GLU37       0.2617
     32  O         15.9030   32.1160   12.3350 O.2    37  GLU37      -0.2715
     33  CB        14.4420   31.8150   15.1660 C.3    37  GLU37       0.0429
     34  CG        13.1470   31.9610   15.9750 C.3    37  GLU37       0.1163
     35  CD        13.2760   33.0300   17.0580 C.2    37  GLU37       0.3649
     36  OE1       14.3420   33.6780   17.2080 O.co2  37  GLU37      -0.2457
     37  OE2       12.2960   33.2610   17.7990 O.co2  37  GLU37      -0.2457
     38  N         16.7820   30.4150   13.5590 N.am   38  THR38      -0.1951
     39  CA        18.1580   30.5740   13.1160 C.3    38  THR38       0.1897
     40  C         18.7120   29.6660   12.0120 C.2    38  THR38       0.2313
     41  O         19.5740   30.0970   11.2300 O.2    38  THR38      -0.2863
     42  CB        19.0920   30.4720   14.3450 C.3    38  THR38       0.1794
     43  OG1       18.7840   29.2750   15.0720 O.3    38  THR38      -0.2208
     44  CG2       18.8910   31.6600   15.2880 C.3    38  THR38       0.0378
     45  N         12.8970   22.7950   15.4470 N.3    44  CYS44      -0.1235
     46  CA        13.2380   22.8550   16.8390 C.3    44  CYS44       0.1677
     47  C         12.1590   22.1490   17.6210 C.2    44  CYS44       0.2270
     48  O         10.9790   22.3670   17.3810 O.2    44  CYS44      -0.2867
     49  CB        13.3420   24.2610   17.2940 C.3    44  CYS44       0.0956
     50  SG        13.5040   24.3600   19.0810 S.3    44  CYS44      -0.0801
     51  N         13.3060   23.4730   27.4040 N.3    59  LYS59      -0.1231
     52  CA        14.5270   23.1020   26.6800 C.3    59  LYS59       0.1693
     53  C         14.2100   23.0840   25.1770 C.2    59  LYS59       0.2592
     54  O         13.1020   22.7470   24.7830 O.2    59  LYS59      -0.2718
     55  CB        15.0580   21.7320   27.0880 C.3    59  LYS59       0.0285
     56  CG        16.0280   21.7300   28.3180 C.3    59  LYS59       0.0035
     57  CD        15.2860   21.8580   29.6600 C.3    59  LYS59       0.0206
     58  CE        16.2800   21.7670   30.8760 C.3    59  LYS59       0.1093
     59  NZ        15.6170   21.3820   32.1480 N.3    59  LYS59      -0.1314
     60  N         15.1690   23.5180   24.3630 N.am   60  HIS60      -0.1962
     61  CA        15.0350   23.5550   22.9070 C.3    60  HIS60       0.1787
     62  C         16.0980   22.6620   22.2620 C.2    60  HIS60       0.2620
     63  O         17.2750   22.8310   22.5320 O.2    60  HIS60      -0.2715
     64  CB        15.2070   25.0370   22.3930 C.3    60  HIS60       0.0785
     65  CG        14.2170   25.9920   22.9800 C.ar   60  HIS60       0.0821
     66  ND1       12.8940   26.0150   22.5970 N.ar   60  HIS60      -0.2267
     67  CD2       14.3570   26.9610   23.9170 C.ar   60  HIS60       0.1154
     68  CE1       12.2650   26.9670   23.2640 C.ar   60  HIS60       0.1986
     69  NE2       13.1270   27.5540   24.0750 N.ar   60  HIS60      -0.2212
     70  N         15.6650   21.7320   21.4180 N.am   61  TYR61      -0.1960
     71  CA        16.5510   20.8110   20.7380 C.3    61  TYR61       0.1771
     72  C         16.4320   20.9970   19.2270 C.2    61  TYR61       0.2619
     73  O         15.3390   20.8970   18.6350 O.2    61  TYR61      -0.2715
     74  CB        16.1640   19.3690   21.0940 C.3    61  TYR61       0.0574
     75  CG        16.1990   19.0910   22.5650 C.ar   61  TYR61      -0.0198
     76  CD1       15.0490   19.1910   23.3290 C.ar   61  TYR61      -0.0009
     77  CD2       17.3970   18.7610   23.2080 C.ar   61  TYR61      -0.0009
     78  CE1       15.0830   18.9890   24.6850 C.ar   61  TYR61       0.0417
     79  CE2       17.4400   18.5500   24.5790 C.ar   61  TYR61       0.0417
     80  CZ        16.2700   18.6730   25.3110 C.ar   61  TYR61       0.1957
     81  OH        16.2600   18.5120   26.6580 O.3    61  TYR61      -0.2866
     82  N         17.5610   21.2400   18.5810 N.am   62  LYS62      -0.1977
     83  CA        17.5680   21.4370   17.1330 C.3    62  LYS62       0.1596
     84  C         17.4140   20.0960   16.4300 C.2    62  LYS62       0.2287
     85  O         18.0320   19.1110   16.8070 O.2    62  LYS62      -0.2864
     86  CB        18.8880   22.1120   16.7080 C.3    62  LYS62       0.0298
     87  CG        18.9070   22.6400   15.2860 C.3    62  LYS62       0.0038
     88  CD        19.2670   24.1460   15.2870 C.3    62  LYS62       0.0206
     89  CE        20.3920   24.4230   16.3610 C.3    62  LYS62       0.1093
     90  NZ        20.7070   25.8740   16.5990 N.3    62  LYS62      -0.1314
     91  N         18.2980   14.5880   16.0700 N.3    73  ILE73      -0.1231
     92  CA        18.7770   15.5850   17.0360 C.3    73  ILE73       0.1692
     93  C         20.2920   15.2610   17.1280 C.2    73  ILE73       0.2592
     94  O         21.1060   16.1730   17.0790 O.2    73  ILE73      -0.2718
     95  CB        18.0700   15.4760   18.4090 C.3    73  ILE73       0.0266
     96  CG1       16.5560   15.8980   18.2560 C.3    73  ILE73       0.0019
     97  CG2       18.7800   16.3710   19.4610 C.3    73  ILE73       0.0020
     98  CD1       15.7380   15.7350   19.5380 C.3    73  ILE73       0.0001
     99  N         20.6440   13.9780   17.2860 N.am   74  THR74      -0.1953
    100  CA        22.0520   13.5470   17.2620 C.3    74  THR74       0.1897
    101  C         22.2140   12.7180   15.9870 C.2    74  THR74       0.2313
    102  O         21.3850   11.8600   15.6860 O.2    74  THR74      -0.2863
    103  CB        22.5150   12.7350   18.5150 C.3    74  THR74       0.1794
    104  OG1       23.8650   12.2870   18.3030 O.3    74  THR74      -0.2208
    105  CG2       21.6330   11.5350   18.8020 C.3    74  THR74       0.0378
    106  N         11.1900    9.4570   20.6170 N.3    89  TYR89      -0.1241
    107  CA        11.4580   10.2270   21.8300 C.3    89  TYR89       0.1605
    108  C         10.3040   10.2990   22.8400 C.2    89  TYR89       0.2264
    109  O         10.4710   10.8330   23.8930 O.2    89  TYR89      -0.2867
    110  CB        12.0330   11.6450   21.4630 C.3    89  TYR89       0.0534
    111  CG        13.4580   11.5330   20.9170 C.ar   89  TYR89      -0.0201
    112  CD1       13.7650   11.8300   19.5610 C.ar   89  TYR89      -0.0009
    113  CD2       14.4890   11.0490   21.7470 C.ar   89  TYR89      -0.0009
    114  CE1       15.0750   11.6310   19.0550 C.ar   89  TYR89       0.0417
    115  CE2       15.7890   10.8530   21.2460 C.ar   89  TYR89       0.0417
    116  CZ        16.0620   11.1430   19.9020 C.ar   89  TYR89       0.1957
    117  OH        17.3260   10.9010   19.4380 O.3    89  TYR89      -0.2866
    118  N         16.6520    9.1720   26.4020 N.3    94  ASP94      -0.1225
    119  CA        18.0130    9.3390   25.8520 C.3    94  ASP94       0.1805
    120  C         18.6730   10.6360   26.3690 C.2    94  ASP94       0.2598
    121  O         18.8110   10.7540   27.6010 O.2    94  ASP94      -0.2718
    122  CB        18.0110    9.2310   24.3010 C.3    94  ASP94       0.1424
    123  CG        17.7010    7.7960   23.8200 C.2    94  ASP94       0.3668
    124  OD1       17.4520    6.9150   24.6900 O.co2  94  ASP94      -0.2456
    125  OD2       17.6960    7.5410   22.5910 O.co2  94  ASP94      -0.2456
    126  N         19.0120   11.5970   25.5130 N.am   95  GLY95      -0.1942
    127  CA        19.6240   12.8320   25.9970 C.3    95  GLY95       0.2014
    128  C         18.6890   14.0010   26.2590 C.2    95  GLY95       0.2638
    129  O         19.1390   15.1300   26.5930 O.2    95  GLY95      -0.2714
    130  N         17.3860   13.7600   26.1080 N.am   96  LEU96      -0.1977
    131  CA        16.3700   14.7940   26.3420 C.3    96  LEU96       0.1596
    132  C         16.1340   15.0270   27.8330 C.2    96  LEU96       0.2287
    133  O         16.3920   14.1410   28.6650 O.2    96  LEU96      -0.2864
    134  CB        15.0090   14.3360   25.7010 C.3    96  LEU96       0.0297
    135  CG        14.9650   14.0430   24.1900 C.3    96  LEU96       0.0022
    136  CD1       13.5210   13.7320   23.7920 C.3    96  LEU96       0.0001
    137  CD2       15.4970   15.2540   23.3770 C.3    96  LEU96       0.0001
@<TRIPOS>BOND
     1    41    40    2
     2    40    39    1
     3    26    25    2
     4    32    31    2
     5    23    24    1
     6    39    38    1
     7    39    42    1
     8    31    38   am
     9    31    30    1
    10    25    24    1
    11    25    29   am
    12    27    24    1
    13    27    28    1
    14    30    29    1
    15    30    33    1
    16    14    15    2
    17    14    13    1
    18    42    43    1
    19    42    44    1
    20    33    34    1
    21    13    12    1
    22    13    16    1
    23    87    88    1
    24    87    86    1
    25    88    89    1
    26    45    46    1
    27   102   101    2
    28    34    35    1
    29   101   100    1
    30    91    92    1
    31    16    17    1
    32    89    90    1
    33    84    85    2
    34    84    83    1
    35    86    83    1
    36    46    49    1
    37    46    47    1
    38    92    93    1
    39    92    95    1
    40    35    36   ar
    41    35    37   ar
    42    17    18    1
    43    94    93    2
    44    93    99   am
    45    83    82    1
    46   100    99    1
    47   100   103    1
    48    49    50    1
    49    48    47    2
    50    22    20    1
    51    18    19    1
    52    96    95    1
    53    96    98    1
    54   104   103    1
    55    95    97    1
    56   103   105    1
    57    82    72   am
    58    73    72    2
    59    20    19    2
    60    20    21    1
    61   114   112   ar
    62   114   116   ar
    63     1     2    1
    64    72    71    1
    65   117   116    1
    66   112   111   ar
    67   116   115   ar
    68     2     5    1
    69     2     3    1
    70     5     6    1
    71   106   107    1
    72    71    74    1
    73    71    70    1
    74   111   110    1
    75   111   113   ar
    76    74    75    1
    77   115   113   ar
    78    11     9    1
    79    70    62   am
    80   110   107    1
    81     7     6    1
    82     7     8    1
    83     3     4    2
    84   107   108    1
    85    62    63    2
    86    62    61    1
    87    64    61    1
    88    64    65    1
    89     9     8    2
    90     9    10    1
    91    75    77   ar
    92    75    76   ar
    93   125   123   ar
    94    66    65   ar
    95    66    68   ar
    96   108   109    2
    97    61    60    1
    98    65    67   ar
    99    77    79   ar
   100    68    69   ar
   101    76    78   ar
   102   137   135    1
   103   136   135    1
   104   123   122    1
   105   123   124   ar
   106    67    69   ar
   107   135   134    1
   108   122   119    1
   109    60    53   am
   110    79    80   ar
   111    78    80   ar
   112    54    53    2
   113    53    52    1
   114    80    81    1
   115   126   127    1
   116   126   120   am
   117   134   131    1
   118   119   120    1
   119   119   118    1
   120   127   128    1
   121   130   128   am
   122   130   131    1
   123   128   129    2
   124   131   132    1
   125   120   121    2
   126    52    55    1
   127    52    51    1
   128    55    56    1
   129   132   133    2
   130    56    57    1
   131    57    58    1
   132    58    59    1
