@<TRIPOS>MOLECULE
tmp/1o44A00.pdb
 144 139 0 0 0
SMALL
GASTEIGER

@<TRIPOS>ATOM
      1  N         10.6510   31.3130   19.3280 N.3    14  ARG14      -0.1245
      2  CA        11.2330   30.6610   20.4790 C.3    14  ARG14       0.1563
      3  C         10.5580   31.2280   21.8220 C.2    14  ARG14       0.2260
      4  O         10.1920   30.4870   22.7140 O.2    14  ARG14      -0.2867
      5  CB        12.7310   30.9560   20.4780 C.3    14  ARG14       0.0307
      6  CG        13.4070   30.5870   21.7180 C.3    14  ARG14       0.0489
      7  CD        14.8030   31.0600   21.6120 C.3    14  ARG14       0.2205
      8  NE        15.5060   30.6630   22.7960 N.pl3  14  ARG14      -0.0865
      9  CZ        16.2880   29.6000   22.8720 C.cat  14  ARG14       0.5346
     10  NH1       16.8530   29.3400   24.0470 N.pl3  14  ARG14       0.1354
     11  NH2       16.5310   28.8370   21.7870 N.pl3  14  ARG14       0.1354
     12  N          8.5950   23.2850   15.9870 N.3    34  ARG34      -0.1245
     13  CA         8.4140   24.5340   15.2340 C.3    34  ARG34       0.1563
     14  C          9.5800   24.7240   14.2720 C.2    34  ARG34       0.2260
     15  O         10.5260   23.9420   14.2340 O.2    34  ARG34      -0.2867
     16  CB         8.3720   25.7160   16.2210 C.3    34  ARG34       0.0307
     17  CG         9.6710   25.8670   17.0400 C.3    34  ARG34       0.0489
     18  CD         9.5790   26.9540   18.0870 C.3    34  ARG34       0.2205
     19  NE        10.7110   26.9730   19.0280 N.pl3  34  ARG34      -0.0865
     20  CZ        11.8840   27.5780   18.8020 C.cat  34  ARG34       0.5346
     21  NH1       12.8280   27.5620   19.7250 N.pl3  34  ARG34       0.1354
     22  NH2       12.1290   28.1760   17.6430 N.pl3  34  ARG34       0.1354
     23  N         12.9820   26.3930   13.0220 N.3    36  SER36      -0.1202
     24  CA        14.1680   26.9630   13.6650 C.3    36  SER36       0.2020
     25  C         14.1050   28.4850   13.3610 C.2    36  SER36       0.2619
     26  O         13.6970   28.8280   12.2580 O.2    36  SER36      -0.2717
     27  CB        15.4330   26.4250   12.9790 C.3    36  SER36       0.2103
     28  OG        16.5180   27.3090   13.1380 O.3    36  SER36      -0.2182
     29  N         14.4530   29.3520   14.3030 N.am   37  GLU37      -0.1965
     30  CA        14.4090   30.7830   14.0170 C.3    37  GLU37       0.1733
     31  C         15.5550   31.2500   13.1030 C.2    37  GLU37       0.2617
     32  O         15.3720   32.1670   12.2600 O.2    37  GLU37      -0.2715
     33  CB        14.5730   31.6230   15.2800 C.3    37  GLU37       0.0429
     34  CG        13.3410   31.6570   16.1780 C.3    37  GLU37       0.1163
     35  CD        13.4350   32.7390   17.2350 C.2    37  GLU37       0.3649
     36  OE1       14.4690   33.4330   17.3140 O.co2  37  GLU37      -0.2457
     37  OE2       12.4740   32.9240   17.9810 O.co2  37  GLU37      -0.2457
     38  N         16.7030   30.5900   13.1980 N.am   38  THR38      -0.1937
     39  CA        17.8430   31.0400   12.4170 C.3    38  THR38       0.2028
     40  C         18.5210   30.0700   11.4960 C.2    38  THR38       0.2642
     41  O         19.4740   30.4580   10.8440 O.2    38  THR38      -0.2714
     42  CB        18.8800   31.7270   13.3410 C.3    38  THR38       0.1808
     43  OG1       19.2930   30.8280   14.3820 O.3    38  THR38      -0.2208
     44  CG2       18.2590   32.9760   13.9780 C.3    38  THR38       0.0379
     45  N         18.0070   28.8510   11.3640 N.am   39  THR39      -0.1950
     46  CA        18.6280   27.8870   10.4580 C.3    39  THR39       0.1897
     47  C         17.6640   27.4410    9.4160 C.2    39  THR39       0.2313
     48  O         16.6820   26.7400    9.6960 O.2    39  THR39      -0.2863
     49  CB        19.1480   26.6630   11.2090 C.3    39  THR39       0.1794
     50  OG1       20.0690   27.0710   12.2340 O.3    39  THR39      -0.2208
     51  CG2       19.8260   25.7180   10.2380 C.3    39  THR39       0.0378
     52  N         12.8630   22.9020   15.4130 N.3    44  CYS44      -0.1235
     53  CA        13.2380   22.8860   16.8160 C.3    44  CYS44       0.1677
     54  C         12.1470   22.1870   17.5540 C.2    44  CYS44       0.2270
     55  O         10.9590   22.3650   17.3010 O.2    44  CYS44      -0.2867
     56  CB        13.4820   24.3050   17.4180 C.3    44  CYS44       0.0956
     57  SG        14.9840   25.2250   16.7970 S.3    44  CYS44      -0.0801
     58  N         13.4040   23.4030   27.2210 N.3    59  LYS59      -0.1231
     59  CA        14.6350   23.0610   26.5210 C.3    59  LYS59       0.1693
     60  C         14.3130   23.0380   25.1000 C.2    59  LYS59       0.2592
     61  O         13.2110   22.6120   24.7070 O.2    59  LYS59      -0.2718
     62  CB        15.1620   21.6830   26.9370 C.3    59  LYS59       0.0285
     63  CG        15.6720   21.6400   28.3860 C.3    59  LYS59       0.0035
     64  CD        16.8970   22.5270   28.5490 C.3    59  LYS59       0.0206
     65  CE        17.4830   22.4110   29.9500 C.3    59  LYS59       0.1093
     66  NZ        18.8740   22.9790   29.9880 N.3    59  LYS59      -0.1314
     67  N         15.2310   23.5250   24.2740 N.am   60  HIS60      -0.1962
     68  CA        15.0350   23.5550   22.8270 C.3    60  HIS60       0.1787
     69  C         16.1000   22.7280   22.1470 C.2    60  HIS60       0.2620
     70  O         17.2400   22.9720   22.3310 O.2    60  HIS60      -0.2715
     71  CB        15.1700   24.9900   22.2810 C.3    60  HIS60       0.0785
     72  CG        14.2230   25.9690   22.9170 C.ar   60  HIS60       0.0821
     73  ND1       12.8990   26.0860   22.5360 N.ar   60  HIS60      -0.2267
     74  CD2       14.3880   26.8210   23.9630 C.ar   60  HIS60       0.1154
     75  CE1       12.2960   26.9580   23.3210 C.ar   60  HIS60       0.1986
     76  NE2       13.1720   27.4160   24.1940 N.ar   60  HIS60      -0.2212
     77  N         15.6800   21.7770   21.3260 N.am   61  TYR61      -0.1960
     78  CA        16.5840   20.8950   20.5940 C.3    61  TYR61       0.1771
     79  C         16.4430   21.1020   19.1090 C.2    61  TYR61       0.2619
     80  O         15.3470   20.9810   18.5090 O.2    61  TYR61      -0.2715
     81  CB        16.2540   19.4180   20.9030 C.3    61  TYR61       0.0574
     82  CG        16.2140   19.0760   22.3790 C.ar   61  TYR61      -0.0198
     83  CD1       15.0330   19.2350   23.1270 C.ar   61  TYR61      -0.0009
     84  CD2       17.3680   18.6660   23.0560 C.ar   61  TYR61      -0.0009
     85  CE1       15.0130   19.0100   24.5190 C.ar   61  TYR61       0.0417
     86  CE2       17.3550   18.4310   24.4410 C.ar   61  TYR61       0.0417
     87  CZ        16.1780   18.6110   25.1650 C.ar   61  TYR61       0.1957
     88  OH        16.1530   18.4000   26.5180 O.3    61  TYR61      -0.2866
     89  N         17.5500   21.4210   18.4580 N.am   62  LYS62      -0.1977
     90  CA        17.5200   21.6150   17.0230 C.3    62  LYS62       0.1596
     91  C         17.4010   20.2490   16.2830 C.2    62  LYS62       0.2287
     92  O         18.0170   19.2400   16.6580 O.2    62  LYS62      -0.2864
     93  CB        18.7710   22.3250   16.5250 C.3    62  LYS62       0.0298
     94  CG        18.6150   22.8270   15.0640 C.3    62  LYS62       0.0038
     95  CD        19.6520   23.9120   14.7050 C.3    62  LYS62       0.0206
     96  CE        19.6600   24.9970   15.7970 C.3    62  LYS62       0.1093
     97  NZ        20.6750   26.0960   15.6460 N.3    62  LYS62      -0.1314
     98  N         18.2010   14.6660   15.7650 N.3    73  ILE73      -0.1231
     99  CA        18.6720   15.6190   16.7570 C.3    73  ILE73       0.1692
    100  C         20.2170   15.2710   16.8170 C.2    73  ILE73       0.2592
    101  O         21.0520   16.1820   16.7260 O.2    73  ILE73      -0.2718
    102  CB        18.0020   15.4410   18.1200 C.3    73  ILE73       0.0266
    103  CG1       16.5320   15.8700   18.0380 C.3    73  ILE73       0.0019
    104  CG2       18.7340   16.3180   19.1900 C.3    73  ILE73       0.0020
    105  CD1       15.7620   15.6420   19.3480 C.3    73  ILE73       0.0001
    106  N         20.5620   13.9970   17.0080 N.am   74  THR74      -0.1953
    107  CA        21.9700   13.5940   16.9400 C.3    74  THR74       0.1897
    108  C         22.1250   12.7500   15.6410 C.2    74  THR74       0.2313
    109  O         21.2960   11.8930   15.3520 O.2    74  THR74      -0.2863
    110  CB        22.4760   12.8010   18.1690 C.3    74  THR74       0.1794
    111  OG1       23.8140   12.3560   17.9120 O.3    74  THR74      -0.2208
    112  CG2       21.5640   11.6340   18.5100 C.3    74  THR74       0.0378
    113  N         11.1550    9.4690   20.3030 N.3    89  TYR89      -0.1241
    114  CA        11.4160   10.2530   21.5190 C.3    89  TYR89       0.1605
    115  C         10.2860   10.2670   22.5380 C.2    89  TYR89       0.2264
    116  O         10.4440   10.8110   23.5980 O.2    89  TYR89      -0.2867
    117  CB        12.0060   11.6120   21.1540 C.3    89  TYR89       0.0534
    118  CG        13.4210   11.4970   20.6510 C.ar   89  TYR89      -0.0201
    119  CD1       13.7300   11.8080   19.3230 C.ar   89  TYR89      -0.0009
    120  CD2       14.4430   11.0150   21.4890 C.ar   89  TYR89      -0.0009
    121  CE1       15.0100   11.6290   18.8300 C.ar   89  TYR89       0.0417
    122  CE2       15.7360   10.8300   21.0050 C.ar   89  TYR89       0.0417
    123  CZ        15.9970   11.1410   19.6710 C.ar   89  TYR89       0.1957
    124  OH        17.2270   10.8970   19.1240 O.3    89  TYR89      -0.2866
    125  N         16.7110    9.3540   26.1550 N.3    94  ASP94      -0.1225
    126  CA        18.0490    9.4560   25.5640 C.3    94  ASP94       0.1805
    127  C         18.7450   10.7580   26.1050 C.2    94  ASP94       0.2598
    128  O         18.9350   10.8650   27.3190 O.2    94  ASP94      -0.2718
    129  CB        17.9800    9.3100   24.0430 C.3    94  ASP94       0.1424
    130  CG        17.7430    7.8540   23.5900 C.2    94  ASP94       0.3668
    131  OD1       17.5590    6.9710   24.4610 O.co2  94  ASP94      -0.2456
    132  OD2       17.7520    7.6110   22.3660 O.co2  94  ASP94      -0.2456
    133  N         19.0870   11.6910   25.2190 N.am   95  GLY95      -0.1942
    134  CA        19.7240   12.9400   25.6220 C.3    95  GLY95       0.2014
    135  C         18.7330   14.0680   25.9280 C.2    95  GLY95       0.2638
    136  O         19.1540   15.1830   26.2800 O.2    95  GLY95      -0.2714
    137  N         17.4280   13.7900   25.8170 N.am   96  LEU96      -0.1977
    138  CA        16.3740   14.8030   26.1070 C.3    96  LEU96       0.1596
    139  C         16.0920   14.9850   27.6030 C.2    96  LEU96       0.2287
    140  O         16.3490   14.0950   28.4470 O.2    96  LEU96      -0.2864
    141  CB        15.0090   14.3830   25.5460 C.3    96  LEU96       0.0297
    142  CG        14.9630   14.1020   24.0440 C.3    96  LEU96       0.0022
    143  CD1       13.5140   13.7790   23.6450 C.3    96  LEU96       0.0001
    144  CD2       15.4490   15.3350   23.2880 C.3    96  LEU96       0.0001
@<TRIPOS>BOND
     1    47    48    2
     2    47    46    1
     3    51    49    1
     4    46    49    1
     5    46    45    1
     6    41    40    2
     7    49    50    1
     8    45    40   am
     9    40    39    1
    10    26    25    2
    11    32    31    2
    12    39    38    1
    13    39    42    1
    14    27    28    1
    15    27    24    1
    16    23    24    1
    17    31    38   am
    18    31    30    1
    19    42    44    1
    20    42    43    1
    21    25    24    1
    22    25    29   am
    23    30    29    1
    24    30    33    1
    25    15    14    2
    26    14    13    1
    27    95    94    1
    28    95    96    1
    29    94    93    1
    30    13    12    1
    31    13    16    1
    32    33    34    1
    33   109   108    2
    34    52    53    1
    35   108   107    1
    36    97    96    1
    37    98    99    1
    38    34    35    1
    39    16    17    1
    40    91    92    2
    41    91    90    1
    42    93    90    1
    43   101   100    2
    44    99   100    1
    45    99   102    1
    46    57    56    1
    47    53    56    1
    48    53    54    1
    49   100   106   am
    50   107   106    1
    51   107   110    1
    52    90    89    1
    53    17    18    1
    54    35    36   ar
    55    35    37   ar
    56    55    54    2
    57    22    20    1
    58   111   110    1
    59   103   102    1
    60   103   105    1
    61    18    19    1
    62   102   104    1
    63   110   112    1
    64    89    79   am
    65    80    79    2
    66    20    19    2
    67    20    21    1
    68   121   119   ar
    69   121   123   ar
    70    79    78    1
    71   124   123    1
    72   119   118   ar
    73     1     2    1
    74   123   122   ar
    75   113   114    1
    76     5     2    1
    77     5     6    1
    78     2     3    1
    79    78    81    1
    80    78    77    1
    81   118   117    1
    82   118   120   ar
    83    81    82    1
    84   122   120   ar
    85   117   114    1
    86    77    69   am
    87   114   115    1
    88     7     6    1
    89     7     8    1
    90    11     9    1
    91     3     4    2
    92    69    70    2
    93    69    68    1
    94    71    68    1
    95    71    72    1
    96   132   130   ar
    97    82    84   ar
    98    82    83   ar
    99    73    72   ar
   100    73    75   ar
   101   115   116    2
   102     8     9    2
   103    68    67    1
   104     9    10    1
   105    72    74   ar
   106    84    86   ar
   107    83    85   ar
   108   144   142    1
   109    75    76   ar
   110   130   129    1
   111   130   131   ar
   112   143   142    1
   113    74    76   ar
   114   129   126    1
   115   142   141    1
   116    67    60   am
   117    86    87   ar
   118    85    87   ar
   119    61    60    2
   120    60    59    1
   121    87    88    1
   122   133   134    1
   123   133   127   am
   124   141   138    1
   125   126   127    1
   126   126   125    1
   127   134   135    1
   128   137   135   am
   129   137   138    1
   130   135   136    2
   131   127   128    2
   132   138   139    1
   133    59    62    1
   134    59    58    1
   135    62    63    1
   136   139   140    2
   137    63    64    1
   138    64    65    1
   139    65    66    1
