@<TRIPOS>MOLECULE
tmp/1o47A00.pdb
 149 145 0 0 0
SMALL
GASTEIGER

@<TRIPOS>ATOM
      1  N         10.8310   31.3870   19.2640 N.3    14  ARG14      -0.1245
      2  CA        11.3890   30.7510   20.4330 C.3    14  ARG14       0.1563
      3  C         10.6740   31.2820   21.6790 C.2    14  ARG14       0.2260
      4  O         10.2600   30.5070   22.5200 O.2    14  ARG14      -0.2867
      5  CB        12.8750   31.0760   20.4500 C.3    14  ARG14       0.0307
      6  CG        13.6200   30.5790   21.6060 C.3    14  ARG14       0.0489
      7  CD        15.0530   30.9820   21.3700 C.3    14  ARG14       0.2205
      8  NE        15.7820   30.5460   22.5120 N.pl3  14  ARG14      -0.0865
      9  CZ        16.4210   29.3970   22.5550 C.cat  14  ARG14       0.5346
     10  NH1       17.0100   29.0630   23.6870 N.pl3  14  ARG14       0.1354
     11  NH2       16.5750   28.6630   21.4520 N.pl3  14  ARG14       0.1354
     12  N          8.6990   23.1200   16.0980 N.3    34  ARG34      -0.1245
     13  CA         8.5460   24.3480   15.3160 C.3    34  ARG34       0.1563
     14  C          9.7320   24.4750   14.3530 C.2    34  ARG34       0.2260
     15  O         10.7030   23.6890   14.4120 O.2    34  ARG34      -0.2867
     16  CB         8.5370   25.5630   16.2430 C.3    34  ARG34       0.0307
     17  CG         9.7970   25.6660   17.1570 C.3    34  ARG34       0.0489
     18  CD         9.8310   26.9180   17.9870 C.3    34  ARG34       0.2205
     19  NE        10.9390   26.9380   18.9510 N.pl3  34  ARG34      -0.0865
     20  CZ        12.1540   27.4720   18.7140 C.cat  34  ARG34       0.5346
     21  NH1       13.0730   27.4430   19.6710 N.pl3  34  ARG34       0.1354
     22  NH2       12.4360   28.0560   17.5500 N.pl3  34  ARG34       0.1354
     23  N         13.0810   26.2680   12.8820 N.3    36  SER36      -0.1202
     24  CA        14.1970   26.9700   13.5060 C.3    36  SER36       0.2020
     25  C         14.0560   28.4590   13.0830 C.2    36  SER36       0.2619
     26  O         13.6140   28.7500   11.9820 O.2    36  SER36      -0.2717
     27  CB        15.5350   26.3870   12.9810 C.3    36  SER36       0.2103
     28  OG        16.6460   27.2350   13.2520 O.3    36  SER36      -0.2182
     29  N         14.3640   29.3820   13.9770 N.am   37  GLU37      -0.1965
     30  CA        14.3010   30.8090   13.6500 C.3    37  GLU37       0.1733
     31  C         15.4660   31.2320   12.7370 C.2    37  GLU37       0.2617
     32  O         15.3890   32.2350   12.0380 O.2    37  GLU37      -0.2715
     33  CB        14.4150   31.6580   14.9210 C.3    37  GLU37       0.0429
     34  CG        13.1810   31.7590   15.8020 C.3    37  GLU37       0.1163
     35  CD        13.3880   32.7430   16.9400 C.2    37  GLU37       0.3649
     36  OE1       14.4990   33.2910   17.0700 O.co2  37  GLU37      -0.2457
     37  OE2       12.4500   32.9970   17.7200 O.co2  37  GLU37      -0.2457
     38  N         16.5510   30.4680   12.7510 N.am   38  THR38      -0.1951
     39  CA        17.7230   30.8610   11.9910 C.3    38  THR38       0.1897
     40  C         18.3510   29.8360   11.0390 C.2    38  THR38       0.2313
     41  O         19.0730   30.2070   10.1030 O.2    38  THR38      -0.2863
     42  CB        18.8160   31.4270   12.9840 C.3    38  THR38       0.1794
     43  OG1       18.9630   30.5370   14.1290 O.3    38  THR38      -0.2208
     44  CG2       18.4300   32.8860   13.4330 C.3    38  THR38       0.0378
     45  N         14.6150   22.1770   12.4180 N.3    43  TYR43      -0.1227
     46  CA        13.4460   22.3680   13.2840 C.3    43  TYR43       0.1736
     47  C         13.9270   22.4000   14.7160 C.2    43  TYR43       0.2595
     48  O         15.0870   22.1880   14.9950 O.2    43  TYR43      -0.2718
     49  CB        12.4800   21.1970   13.1740 C.3    43  TYR43       0.0548
     50  CG        12.0170   20.9210   11.7770 C.ar   43  TYR43      -0.0200
     51  CD1       12.6610   19.9540   10.9930 C.ar   43  TYR43      -0.0009
     52  CD2       10.9550   21.6260   11.2300 C.ar   43  TYR43      -0.0009
     53  CE1       12.2610   19.6910    9.6840 C.ar   43  TYR43       0.0417
     54  CE2       10.5360   21.3690    9.9200 C.ar   43  TYR43       0.0417
     55  CZ        11.1980   20.3970    9.1530 C.ar   43  TYR43       0.1957
     56  OH        10.7890   20.1270    7.8640 O.3    43  TYR43      -0.2866
     57  N         13.0080   22.6180   15.6400 N.am   44  CYS44      -0.1970
     58  CA        13.3640   22.6470   17.0200 C.3    44  CYS44       0.1712
     59  C         12.2800   21.9550   17.7940 C.2    44  CYS44       0.2296
     60  O         11.0980   22.1430   17.4970 O.2    44  CYS44      -0.2864
     61  CB        13.4700   24.0820   17.5180 C.3    44  CYS44       0.0983
     62  SG        13.7120   24.1770   19.2910 S.3    44  CYS44      -0.0798
     63  N         13.4610   23.4640   27.5220 N.3    59  LYS59      -0.1231
     64  CA        14.6810   23.0900   26.8310 C.3    59  LYS59       0.1693
     65  C         14.3680   23.0230   25.3460 C.2    59  LYS59       0.2592
     66  O         13.2720   22.6220   24.9650 O.2    59  LYS59      -0.2718
     67  CB        15.1840   21.7360   27.3110 C.3    59  LYS59       0.0285
     68  CG        16.1380   21.8040   28.5090 C.3    59  LYS59       0.0035
     69  CD        15.4560   21.4790   29.8310 C.3    59  LYS59       0.0206
     70  CE        16.3930   21.7250   31.0280 C.3    59  LYS59       0.1093
     71  NZ        15.7620   21.4060   32.3310 N.3    59  LYS59      -0.1314
     72  N         15.3110   23.4640   24.5170 N.am   60  HIS60      -0.1962
     73  CA        15.1800   23.4710   23.0560 C.3    60  HIS60       0.1787
     74  C         16.2480   22.5880   22.4010 C.2    60  HIS60       0.2620
     75  O         17.4480   22.7880   22.6270 O.2    60  HIS60      -0.2715
     76  CB        15.3510   24.8920   22.5240 C.3    60  HIS60       0.0785
     77  CG        14.4040   25.8780   23.1360 C.ar   60  HIS60       0.0821
     78  ND1       13.1050   26.0360   22.6860 N.ar   60  HIS60      -0.2267
     79  CD2       14.5670   26.7860   24.1270 C.ar   60  HIS60       0.1154
     80  CE1       12.5260   27.0010   23.3700 C.ar   60  HIS60       0.1986
     81  NE2       13.3830   27.4630   24.2480 N.ar   60  HIS60      -0.2212
     82  N         15.7970   21.6310   21.5930 N.am   61  TYR61      -0.1960
     83  CA        16.6650   20.6770   20.9080 C.3    61  TYR61       0.1771
     84  C         16.5790   20.8580   19.3860 C.2    61  TYR61       0.2619
     85  O         15.4980   20.7200   18.7730 O.2    61  TYR61      -0.2715
     86  CB        16.3010   19.2310   21.3010 C.3    61  TYR61       0.0574
     87  CG        16.3530   18.9760   22.7830 C.ar   61  TYR61      -0.0198
     88  CD1       15.2150   19.1190   23.5680 C.ar   61  TYR61      -0.0009
     89  CD2       17.5460   18.6130   23.4280 C.ar   61  TYR61      -0.0009
     90  CE1       15.2540   18.9180   24.9360 C.ar   61  TYR61       0.0417
     91  CE2       17.5940   18.4070   24.8160 C.ar   61  TYR61       0.0417
     92  CZ        16.4400   18.5660   25.5560 C.ar   61  TYR61       0.1957
     93  OH        16.4270   18.4270   26.8990 O.3    61  TYR61      -0.2866
     94  N         17.7110   21.1980   18.7600 N.am   62  LYS62      -0.1977
     95  CA        17.7180   21.3790   17.3190 C.3    62  LYS62       0.1596
     96  C         17.6120   20.0330   16.6280 C.2    62  LYS62       0.2287
     97  O         18.2410   19.0620   17.0510 O.2    62  LYS62      -0.2864
     98  CB        18.9710   22.1130   16.8610 C.3    62  LYS62       0.0298
     99  CG        18.9100   22.5190   15.4330 C.3    62  LYS62       0.0038
    100  CD        20.1110   23.3680   15.1380 C.3    62  LYS62       0.0206
    101  CE        20.0340   24.0250   13.7810 C.3    62  LYS62       0.1093
    102  NZ        21.0820   25.0910   13.7380 N.3    62  LYS62      -0.1314
    103  N         18.4230   14.4830   16.2980 N.3    73  ILE73      -0.1231
    104  CA        18.9140   15.4670   17.2460 C.3    73  ILE73       0.1692
    105  C         20.4510   15.1450   17.3180 C.2    73  ILE73       0.2592
    106  O         21.2680   16.0510   17.2090 O.2    73  ILE73      -0.2718
    107  CB        18.2530   15.3810   18.6450 C.3    73  ILE73       0.0266
    108  CG1       16.7560   15.7160   18.5370 C.3    73  ILE73       0.0019
    109  CG2       18.9370   16.3810   19.6330 C.3    73  ILE73       0.0020
    110  CD1       15.9750   15.4240   19.8060 C.3    73  ILE73       0.0001
    111  N         20.8200   13.8640   17.4760 N.am   74  THR74      -0.1953
    112  CA        22.2310   13.4450   17.4550 C.3    74  THR74       0.1897
    113  C         22.3940   12.6240   16.1900 C.2    74  THR74       0.2313
    114  O         21.5360   11.8040   15.8770 O.2    74  THR74      -0.2863
    115  CB        22.6970   12.6350   18.7150 C.3    74  THR74       0.1794
    116  OG1       24.0330   12.1550   18.4920 O.3    74  THR74      -0.2208
    117  CG2       21.7770   11.4450   19.0370 C.3    74  THR74       0.0378
    118  N         11.3290    9.3180   20.8920 N.3    89  TYR89      -0.1241
    119  CA        11.6000   10.1110   22.0820 C.3    89  TYR89       0.1605
    120  C         10.4450   10.1880   23.0980 C.2    89  TYR89       0.2264
    121  O         10.5820   10.7580   24.1540 O.2    89  TYR89      -0.2867
    122  CB        12.1590   11.5020   21.6960 C.3    89  TYR89       0.0534
    123  CG        13.6030   11.4370   21.1560 C.ar   89  TYR89      -0.0201
    124  CD1       13.8990   11.7620   19.8290 C.ar   89  TYR89      -0.0009
    125  CD2       14.6480   10.9650   21.9680 C.ar   89  TYR89      -0.0009
    126  CE1       15.1940   11.6090   19.3230 C.ar   89  TYR89       0.0417
    127  CE2       15.9510   10.8120   21.4640 C.ar   89  TYR89       0.0417
    128  CZ        16.2080   11.1280   20.1500 C.ar   89  TYR89       0.1957
    129  OH        17.4740   10.8920   19.6370 O.3    89  TYR89      -0.2866
    130  N         16.8500    9.1750   26.7100 N.3    94  ASP94      -0.1225
    131  CA        18.2080    9.3190   26.1660 C.3    94  ASP94       0.1805
    132  C         18.8770   10.5850   26.6820 C.2    94  ASP94       0.2598
    133  O         19.0500   10.7230   27.8870 O.2    94  ASP94      -0.2718
    134  CB        18.2050    9.2120   24.6540 C.3    94  ASP94       0.1424
    135  CG        17.9530    7.7800   24.1850 C.2    94  ASP94       0.3668
    136  OD1       17.7720    6.8720   25.0450 O.co2  94  ASP94      -0.2456
    137  OD2       17.9390    7.5470   22.9630 O.co2  94  ASP94      -0.2456
    138  N         19.2260   11.5200   25.8190 N.am   95  GLY95      -0.1942
    139  CA        19.8450   12.7510   26.3050 C.3    95  GLY95       0.2014
    140  C         18.9050   13.9330   26.5440 C.2    95  GLY95       0.2638
    141  O         19.3550   15.0600   26.8250 O.2    95  GLY95      -0.2714
    142  N         17.5980   13.6970   26.4050 N.am   96  LEU96      -0.1977
    143  CA        16.5720   14.7230   26.6130 C.3    96  LEU96       0.1596
    144  C         16.2870   14.9330   28.0920 C.2    96  LEU96       0.2287
    145  O         16.5110   14.0300   28.9170 O.2    96  LEU96      -0.2864
    146  CB        15.2480   14.3050   25.9300 C.3    96  LEU96       0.0297
    147  CG        15.2120   14.0810   24.4110 C.3    96  LEU96       0.0022
    148  CD1       13.7530   13.7770   24.0070 C.3    96  LEU96       0.0001
    149  CD2       15.7310   15.2990   23.6190 C.3    96  LEU96       0.0001
@<TRIPOS>BOND
     1    56    55    1
     2    55    53   ar
     3    55    54   ar
     4    53    51   ar
     5    54    52   ar
     6    41    40    2
     7    51    50   ar
     8    40    39    1
     9    52    50   ar
    10    50    49    1
    11    26    25    2
    12    39    38    1
    13    39    42    1
    14    32    31    2
    15    45    46    1
    16    31    38   am
    17    31    30    1
    18    23    24    1
    19    27    28    1
    20    27    24    1
    21    42    44    1
    22    42    43    1
    23    25    24    1
    24    25    29   am
    25    49    46    1
    26    46    47    1
    27    30    29    1
    28    30    33    1
    29   102   101    1
    30   101   100    1
    31    14    15    2
    32    14    13    1
    33    47    48    2
    34    47    57   am
    35    33    34    1
    36   100    99    1
    37    13    12    1
    38    13    16    1
    39    99    98    1
    40    57    58    1
    41    34    35    1
    42   114   113    2
    43   113   112    1
    44    16    17    1
    45   103   104    1
    46    96    97    2
    47    96    95    1
    48    98    95    1
    49    35    36   ar
    50    35    37   ar
    51    58    61    1
    52    58    59    1
    53    17    18    1
    54   106   105    2
    55   104   105    1
    56   104   107    1
    57   105   111   am
    58    95    94    1
    59   112   111    1
    60   112   115    1
    61    60    59    2
    62    61    62    1
    63    22    20    1
    64    18    19    1
    65   116   115    1
    66   108   107    1
    67   108   110    1
    68   107   109    1
    69    20    19    2
    70    20    21    1
    71   115   117    1
    72    94    84   am
    73    85    84    2
    74     1     2    1
    75   126   124   ar
    76   126   128   ar
    77    84    83    1
    78   129   128    1
    79   124   123   ar
    80   128   127   ar
    81     2     5    1
    82     2     3    1
    83     5     6    1
    84   118   119    1
    85    83    86    1
    86    83    82    1
    87   123   122    1
    88   123   125   ar
    89    86    87    1
    90     7     6    1
    91     7     8    1
    92    11     9    1
    93   127   125   ar
    94    82    74   am
    95     3     4    2
    96   122   119    1
    97   119   120    1
    98    74    75    2
    99    74    73    1
   100     8     9    2
   101    76    73    1
   102    76    77    1
   103     9    10    1
   104    78    77   ar
   105    78    80   ar
   106    87    89   ar
   107    87    88   ar
   108   137   135   ar
   109    73    72    1
   110   120   121    2
   111    77    79   ar
   112    80    81   ar
   113    89    91   ar
   114    88    90   ar
   115   149   147    1
   116   148   147    1
   117    79    81   ar
   118   135   134    1
   119   135   136   ar
   120   147   146    1
   121    72    65   am
   122   134   131    1
   123    91    92   ar
   124    90    92   ar
   125    66    65    2
   126    65    64    1
   127    92    93    1
   128   138   139    1
   129   138   132   am
   130   146   143    1
   131   131   132    1
   132   131   130    1
   133   139   140    1
   134   142   140   am
   135   142   143    1
   136   140   141    2
   137   143   144    1
   138   132   133    2
   139    64    67    1
   140    64    63    1
   141    67    68    1
   142   144   145    2
   143    68    69    1
   144    69    70    1
   145    70    71    1
