@<TRIPOS>MOLECULE
tmp/1o49A00.pdb
 144 139 0 0 0
SMALL
GASTEIGER

@<TRIPOS>ATOM
      1  N         10.6660   31.2570   19.1020 N.3    14  ARG14      -0.1245
      2  CA        11.1760   30.5970   20.2740 C.3    14  ARG14       0.1563
      3  C         10.4600   31.1440   21.5050 C.2    14  ARG14       0.2260
      4  O         10.0510   30.3680   22.4060 O.2    14  ARG14      -0.2867
      5  CB        12.6500   30.8610   20.3770 C.3    14  ARG14       0.0307
      6  CG        13.2210   30.5580   21.7340 C.3    14  ARG14       0.0489
      7  CD        14.6340   31.0350   21.5700 C.3    14  ARG14       0.2205
      8  NE        15.4360   30.3730   22.5740 N.pl3  14  ARG14      -0.0865
      9  CZ        16.2860   29.3740   22.3240 C.cat  14  ARG14       0.5346
     10  NH1       16.9460   28.8310   23.3360 N.pl3  14  ARG14       0.1354
     11  NH2       16.5610   28.9770   21.0690 N.pl3  14  ARG14       0.1354
     12  N          8.6670   23.1280   15.7760 N.3    34  ARG34      -0.1245
     13  CA         8.4720   24.3910   15.0390 C.3    34  ARG34       0.1563
     14  C          9.5940   24.6070   14.0730 C.2    34  ARG34       0.2260
     15  O         10.5340   23.8630   14.0730 O.2    34  ARG34      -0.2867
     16  CB         8.4080   25.5250   16.0030 C.3    34  ARG34       0.0307
     17  CG         9.7160   25.6980   16.9220 C.3    34  ARG34       0.0489
     18  CD         9.6160   26.8170   17.9440 C.3    34  ARG34       0.2205
     19  NE        10.7570   26.8520   18.8490 N.pl3  34  ARG34      -0.0865
     20  CZ        11.9030   27.4460   18.5690 C.cat  34  ARG34       0.5346
     21  NH1       12.8670   27.4250   19.4620 N.pl3  34  ARG34       0.1354
     22  NH2       12.0790   28.0260   17.3990 N.pl3  34  ARG34       0.1354
     23  N         12.9260   26.3280   12.7450 N.3    36  SER36      -0.1202
     24  CA        14.0270   27.0320   13.4000 C.3    36  SER36       0.2020
     25  C         13.9060   28.5390   12.9440 C.2    36  SER36       0.2619
     26  O         13.5650   28.8180   11.8050 O.2    36  SER36      -0.2717
     27  CB        15.3580   26.4870   12.8660 C.3    36  SER36       0.2103
     28  OG        16.4150   27.3890   13.1880 O.3    36  SER36      -0.2182
     29  N         14.1640   29.4740   13.8550 N.am   37  GLU37      -0.1965
     30  CA        14.1410   30.9020   13.5560 C.3    37  GLU37       0.1733
     31  C         15.3060   31.2590   12.6300 C.2    37  GLU37       0.2617
     32  O         15.1760   32.1810   11.7710 O.2    37  GLU37      -0.2715
     33  CB        14.2810   31.7840   14.8290 C.3    37  GLU37       0.0429
     34  CG        13.0050   31.8400   15.7220 C.3    37  GLU37       0.1163
     35  CD        13.1860   32.7650   16.9060 C.2    37  GLU37       0.3649
     36  OE1       14.2970   33.3160   17.0810 O.co2  37  GLU37      -0.2457
     37  OE2       12.2100   32.9630   17.6870 O.co2  37  GLU37      -0.2457
     38  N         16.4350   30.5690   12.7580 N.am   38  THR38      -0.1937
     39  CA        17.5120   30.9970   11.9150 C.3    38  THR38       0.2028
     40  C         18.2490   29.9900   11.0030 C.2    38  THR38       0.2642
     41  O         19.2620   30.3620   10.3320 O.2    38  THR38      -0.2714
     42  CB        18.4680   31.7780   12.7740 C.3    38  THR38       0.1808
     43  OG1       18.7940   30.9630   13.9220 O.3    38  THR38      -0.2208
     44  CG2       17.8180   33.1720   13.2020 C.3    38  THR38       0.0379
     45  N         17.7300   28.7700   10.8810 N.am   39  THR39      -0.1950
     46  CA        18.3740   27.7820    9.9960 C.3    39  THR39       0.1897
     47  C         17.3410   27.2440    9.0460 C.2    39  THR39       0.2313
     48  O         16.4960   26.4770    9.4510 O.2    39  THR39      -0.2863
     49  CB        18.9480   26.5780   10.7550 C.3    39  THR39       0.1794
     50  OG1       19.8660   27.0410   11.7670 O.3    39  THR39      -0.2208
     51  CG2       19.6210   25.5820    9.7610 C.3    39  THR39       0.0378
     52  N         12.9290   22.8410   15.3180 N.3    44  CYS44      -0.1235
     53  CA        13.2760   22.8370   16.7070 C.3    44  CYS44       0.1677
     54  C         12.1740   22.0880   17.3870 C.2    44  CYS44       0.2270
     55  O         11.0590   22.2740   17.1050 O.2    44  CYS44      -0.2867
     56  CB        13.3740   24.2240   17.3330 C.3    44  CYS44       0.0956
     57  SG        14.6330   25.2960   16.5750 S.3    44  CYS44      -0.0801
     58  N         13.5000   23.4490   27.0230 N.3    59  LYS59      -0.1231
     59  CA        14.7340   23.0620   26.3390 C.3    59  LYS59       0.1693
     60  C         14.3910   23.0170   24.8650 C.2    59  LYS59       0.2592
     61  O         13.2710   22.7010   24.5360 O.2    59  LYS59      -0.2718
     62  CB        15.1660   21.7280   26.7670 C.3    59  LYS59       0.0285
     63  CG        15.8000   21.7350   28.2030 C.3    59  LYS59       0.0035
     64  CD        17.0360   22.7600   28.1340 C.3    59  LYS59       0.0206
     65  CE        17.7020   22.9450   29.6050 C.3    59  LYS59       0.1093
     66  NZ        18.9090   23.9120   29.5890 N.3    59  LYS59      -0.1314
     67  N         15.3060   23.4950   24.0150 N.am   60  HIS60      -0.1962
     68  CA        15.1020   23.5100   22.5760 C.3    60  HIS60       0.1787
     69  C         16.2130   22.6580   21.9390 C.2    60  HIS60       0.2620
     70  O         17.3750   22.9050   22.1870 O.2    60  HIS60      -0.2715
     71  CB        15.2370   25.0010   22.0400 C.3    60  HIS60       0.0785
     72  CG        14.2850   25.9630   22.6800 C.ar   60  HIS60       0.0821
     73  ND1       12.9470   26.0150   22.3530 N.ar   60  HIS60      -0.2267
     74  CD2       14.4730   26.8770   23.6500 C.ar   60  HIS60       0.1154
     75  CE1       12.3420   26.9160   23.1050 C.ar   60  HIS60       0.1986
     76  NE2       13.2540   27.4540   23.9020 N.ar   60  HIS60      -0.2212
     77  N         15.8260   21.6590   21.1580 N.am   61  TYR61      -0.1960
     78  CA        16.7190   20.7260   20.4820 C.3    61  TYR61       0.1771
     79  C         16.6140   20.9620   18.9500 C.2    61  TYR61       0.2619
     80  O         15.5130   20.9890   18.3810 O.2    61  TYR61      -0.2715
     81  CB        16.2900   19.2960   20.7830 C.3    61  TYR61       0.0574
     82  CG        16.3260   18.9690   22.2500 C.ar   61  TYR61      -0.0198
     83  CD1       15.1680   19.0170   23.0100 C.ar   61  TYR61      -0.0009
     84  CD2       17.5330   18.7040   22.9020 C.ar   61  TYR61      -0.0009
     85  CE1       15.1880   18.8190   24.3880 C.ar   61  TYR61       0.0417
     86  CE2       17.5730   18.5230   24.2530 C.ar   61  TYR61       0.0417
     87  CZ        16.4140   18.5780   25.0050 C.ar   61  TYR61       0.1957
     88  OH        16.4240   18.4490   26.3630 O.3    61  TYR61      -0.2866
     89  N         17.7270   21.1280   18.2640 N.am   62  LYS62      -0.1977
     90  CA        17.6470   21.3700   16.8360 C.3    62  LYS62       0.1596
     91  C         17.4560   20.0280   16.1340 C.2    62  LYS62       0.2287
     92  O         18.1110   19.1090   16.4650 O.2    62  LYS62      -0.2864
     93  CB        18.9190   22.0070   16.3850 C.3    62  LYS62       0.0298
     94  CG        18.9370   22.2330   14.8900 C.3    62  LYS62       0.0038
     95  CD        19.4180   23.3310   13.7410 C.3    62  LYS62       0.0206
     96  CE        18.3240   24.5440   13.7720 C.3    62  LYS62       0.1093
     97  NZ        18.6150   25.6040   14.8090 N.3    62  LYS62      -0.1314
     98  N         18.3590   14.4500   15.7550 N.3    73  ILE73      -0.1231
     99  CA        18.8660   15.3840   16.7400 C.3    73  ILE73       0.1692
    100  C         20.3510   15.0480   16.8280 C.2    73  ILE73       0.2592
    101  O         21.1490   15.9190   16.7380 O.2    73  ILE73      -0.2718
    102  CB        18.1610   15.3080   18.1090 C.3    73  ILE73       0.0266
    103  CG1       16.7320   15.6590   17.8940 C.3    73  ILE73       0.0019
    104  CG2       18.8600   16.2790   19.1310 C.3    73  ILE73       0.0020
    105  CD1       15.9400   15.7050   19.1760 C.3    73  ILE73       0.0001
    106  N         20.7170   13.7930   16.9980 N.am   74  THR74      -0.1953
    107  CA        22.1150   13.3960   16.9770 C.3    74  THR74       0.1897
    108  C         22.2990   12.5570   15.7200 C.2    74  THR74       0.2313
    109  O         21.4220   11.6850   15.3860 O.2    74  THR74      -0.2863
    110  CB        22.5690   12.6480   18.2060 C.3    74  THR74       0.1794
    111  OG1       23.9430   12.2160   17.9950 O.3    74  THR74      -0.2208
    112  CG2       21.6210   11.4980   18.5710 C.3    74  THR74       0.0378
    113  N         11.3790    9.3270   20.4300 N.3    89  TYR89      -0.1241
    114  CA        11.6870   10.1260   21.6500 C.3    89  TYR89       0.1605
    115  C         10.5180   10.1870   22.6780 C.2    89  TYR89       0.2264
    116  O         10.6200   10.8290   23.6530 O.2    89  TYR89      -0.2867
    117  CB        12.2180   11.5050   21.2700 C.3    89  TYR89       0.0534
    118  CG        13.6560   11.4200   20.7350 C.ar   89  TYR89      -0.0201
    119  CD1       13.9570   11.6900   19.3810 C.ar   89  TYR89      -0.0009
    120  CD2       14.7110   11.0320   21.5830 C.ar   89  TYR89      -0.0009
    121  CE1       15.2270   11.5950   18.9240 C.ar   89  TYR89       0.0417
    122  CE2       16.0080   10.8930   21.0760 C.ar   89  TYR89       0.0417
    123  CZ        16.2370   11.1830   19.7670 C.ar   89  TYR89       0.1957
    124  OH        17.5070   10.9910   19.2360 O.3    89  TYR89      -0.2866
    125  N         16.8950    9.3000   26.2380 N.3    94  ASP94      -0.1225
    126  CA        18.2360    9.3970   25.6320 C.3    94  ASP94       0.1805
    127  C         18.8430   10.7120   26.1220 C.2    94  ASP94       0.2598
    128  O         18.9780   10.8940   27.3580 O.2    94  ASP94      -0.2718
    129  CB        18.1650    9.3020   24.1090 C.3    94  ASP94       0.1424
    130  CG        18.0340    7.8970   23.6260 C.2    94  ASP94       0.3668
    131  OD1       17.7490    7.0030   24.4500 O.co2  94  ASP94      -0.2456
    132  OD2       18.1780    7.6770   22.4170 O.co2  94  ASP94      -0.2456
    133  N         19.2230   11.6090   25.2310 N.am   95  GLY95      -0.1942
    134  CA        19.8150   12.8700   25.6880 C.3    95  GLY95       0.2014
    135  C         18.8850   14.0390   25.9830 C.2    95  GLY95       0.2638
    136  O         19.3170   15.1180   26.3520 O.2    95  GLY95      -0.2714
    137  N         17.6010   13.8150   25.8450 N.am   96  LEU96      -0.1977
    138  CA        16.5910   14.8670   26.0770 C.3    96  LEU96       0.1596
    139  C         16.3280   15.1220   27.5780 C.2    96  LEU96       0.2287
    140  O         16.5150   14.2520   28.4110 O.2    96  LEU96      -0.2864
    141  CB        15.2520   14.4590   25.4470 C.3    96  LEU96       0.0297
    142  CG        15.1890   14.2170   23.8600 C.3    96  LEU96       0.0022
    143  CD1       13.7030   13.9880   23.4070 C.3    96  LEU96       0.0001
    144  CD2       15.7540   15.3350   23.1390 C.3    96  LEU96       0.0001
@<TRIPOS>BOND
     1    47    48    2
     2    47    46    1
     3    51    49    1
     4    46    49    1
     5    46    45    1
     6    41    40    2
     7    49    50    1
     8    45    40   am
     9    40    39    1
    10    32    31    2
    11    26    25    2
    12    39    38    1
    13    39    42    1
    14    31    38   am
    15    31    30    1
    16    23    24    1
    17    42    44    1
    18    42    43    1
    19    27    28    1
    20    27    24    1
    21    25    24    1
    22    25    29   am
    23    30    29    1
    24    30    33    1
    25    95    96    1
    26    95    94    1
    27    96    97    1
    28    15    14    2
    29    14    13    1
    30    33    34    1
    31    94    93    1
    32    13    12    1
    33    13    16    1
    34    52    53    1
    35   109   108    2
    36   108   107    1
    37    34    35    1
    38    98    99    1
    39    16    17    1
    40    91    92    2
    41    91    90    1
    42    93    90    1
    43    57    56    1
    44    53    56    1
    45    53    54    1
    46   101   100    2
    47    99   100    1
    48    99   102    1
    49   100   106   am
    50    90    89    1
    51    35    36   ar
    52    35    37   ar
    53    17    18    1
    54   107   106    1
    55   107   110    1
    56    55    54    2
    57    22    20    1
    58   103   102    1
    59   103   105    1
    60    18    19    1
    61   111   110    1
    62   102   104    1
    63   110   112    1
    64    89    79   am
    65    80    79    2
    66    20    19    2
    67    20    21    1
    68   121   119   ar
    69   121   123   ar
    70    79    78    1
    71     1     2    1
    72   124   123    1
    73   119   118   ar
    74   123   122   ar
    75     2     5    1
    76     2     3    1
    77     5     6    1
    78   113   114    1
    79    78    81    1
    80    78    77    1
    81   118   117    1
    82   118   120   ar
    83    81    82    1
    84    11     9    1
    85   122   120   ar
    86    77    69   am
    87   117   114    1
    88     3     4    2
    89     7     6    1
    90     7     8    1
    91   114   115    1
    92    69    70    2
    93    69    68    1
    94    71    68    1
    95    71    72    1
    96    82    84   ar
    97    82    83   ar
    98     9     8    2
    99     9    10    1
   100    73    72   ar
   101    73    75   ar
   102   132   130   ar
   103    68    67    1
   104   115   116    2
   105    72    74   ar
   106    84    86   ar
   107    83    85   ar
   108    75    76   ar
   109   144   142    1
   110   143   142    1
   111   130   129    1
   112   130   131   ar
   113    74    76   ar
   114   142   141    1
   115    67    60   am
   116   129   126    1
   117    86    87   ar
   118    85    87   ar
   119    61    60    2
   120    60    59    1
   121    87    88    1
   122   133   134    1
   123   133   127   am
   124   141   138    1
   125   126   127    1
   126   126   125    1
   127   134   135    1
   128   137   135   am
   129   137   138    1
   130   135   136    2
   131   138   139    1
   132   127   128    2
   133    59    62    1
   134    59    58    1
   135    62    63    1
   136   139   140    2
   137    64    63    1
   138    64    65    1
   139    66    65    1
