@<TRIPOS>MOLECULE
tmp/1o4aA00.pdb
 137 132 0 0 0
SMALL
GASTEIGER

@<TRIPOS>ATOM
      1  N         10.7440   31.2590   19.1710 N.3    14  ARG14      -0.1245
      2  CA        11.2590   30.6520   20.3650 C.3    14  ARG14       0.1563
      3  C         10.4800   31.2100   21.5640 C.2    14  ARG14       0.2260
      4  O         10.0290   30.4260   22.4060 O.2    14  ARG14      -0.2867
      5  CB        12.7470   30.9900   20.5120 C.3    14  ARG14       0.0307
      6  CG        13.3830   30.6870   21.8430 C.3    14  ARG14       0.0489
      7  CD        14.8630   30.9250   21.6640 C.3    14  ARG14       0.2205
      8  NE        15.6420   29.7670   22.1160 N.pl3  14  ARG14      -0.0865
      9  CZ        16.0250   29.5500   23.3800 C.cat  14  ARG14       0.5346
     10  NH1       15.7080   30.4250   24.3440 N.pl3  14  ARG14       0.1354
     11  NH2       16.6900   28.4370   23.6980 N.pl3  14  ARG14       0.1354
     12  N          8.4270   23.2260   15.4510 N.3    34  ARG34      -0.1245
     13  CA         8.3150   24.4780   14.7170 C.3    34  ARG34       0.1563
     14  C          9.4900   24.6050   13.7750 C.2    34  ARG34       0.2260
     15  O         10.4180   23.7900   13.7800 O.2    34  ARG34      -0.2867
     16  CB         8.2680   25.6340   15.7170 C.3    34  ARG34       0.0307
     17  CG         9.4330   25.6470   16.6960 C.3    34  ARG34       0.0489
     18  CD         9.3700   26.7730   17.7130 C.3    34  ARG34       0.2205
     19  NE        10.5040   26.7670   18.6490 N.pl3  34  ARG34      -0.0865
     20  CZ        11.6480   27.4460   18.4710 C.cat  34  ARG34       0.5346
     21  NH1       12.6050   27.3870   19.3970 N.pl3  34  ARG34       0.1354
     22  NH2       11.8530   28.1580   17.3700 N.pl3  34  ARG34       0.1354
     23  N         12.9810   25.9940   12.3900 N.3    36  SER36      -0.1202
     24  CA        14.2160   26.4630   13.0040 C.3    36  SER36       0.2020
     25  C         14.1860   27.9930   12.7010 C.2    36  SER36       0.2619
     26  O         13.7180   28.3690   11.6190 O.2    36  SER36      -0.2717
     27  CB        15.3970   25.7960   12.2780 C.3    36  SER36       0.2103
     28  OG        16.6150   26.5170   12.4140 O.3    36  SER36      -0.2182
     29  N         14.5450   28.8480   13.6540 N.am   37  GLU37      -0.1965
     30  CA        14.5470   30.2860   13.3720 C.3    37  GLU37       0.1733
     31  C         15.8580   30.6820   12.3690 C.2    37  GLU37       0.2617
     32  O         15.8030   31.5910   11.5150 O.2    37  GLU37      -0.2715
     33  CB        14.5430   31.0990   14.6880 C.3    37  GLU37       0.0429
     34  CG        13.4120   31.2330   15.7460 C.3    37  GLU37       0.1163
     35  CD        13.6790   32.3340   16.8130 C.2    37  GLU37       0.3649
     36  OE1       14.8610   32.6830   17.0310 O.co2  37  GLU37      -0.2457
     37  OE2       12.7190   32.8640   17.4470 O.co2  37  GLU37      -0.2457
     38  N         16.9190   29.8740   12.4810 N.am   38  THR38      -0.1951
     39  CA        18.1680   30.0920   11.7450 C.3    38  THR38       0.1897
     40  C         18.6240   29.1440   10.6440 C.2    38  THR38       0.2313
     41  O         19.5620   29.5310    9.9320 O.2    38  THR38      -0.2863
     42  CB        19.3570   30.2550   12.7270 C.3    38  THR38       0.1794
     43  OG1       18.9680   29.8510   14.0510 O.3    38  THR38      -0.2208
     44  CG2       19.8430   31.7140   12.7360 C.3    38  THR38       0.0378
     45  N         12.6880   22.6810   14.8910 N.3    44  CYS44      -0.1235
     46  CA        13.0350   22.6220   16.2910 C.3    44  CYS44       0.1677
     47  C         11.9760   22.0050   17.0520 C.2    44  CYS44       0.2270
     48  O         10.8150   22.2150   16.7670 O.2    44  CYS44      -0.2867
     49  CB        13.3310   24.0160   16.8340 C.3    44  CYS44       0.0956
     50  SG        15.0080   24.5900   16.3870 S.3    44  CYS44      -0.0801
     51  N         13.1960   23.3820   26.7960 N.3    59  LYS59      -0.1231
     52  CA        14.4260   23.0740   26.0950 C.3    59  LYS59       0.1693
     53  C         14.0700   23.0210   24.6170 C.2    59  LYS59       0.2592
     54  O         12.9340   22.6630   24.2630 O.2    59  LYS59      -0.2718
     55  CB        15.0170   21.7470   26.5940 C.3    59  LYS59       0.0285
     56  CG        15.5190   21.6580   28.0260 C.3    59  LYS59       0.0035
     57  CD        16.6740   22.6060   28.0770 C.3    59  LYS59       0.0206
     58  CE        17.5010   22.4340   29.3660 C.3    59  LYS59       0.1093
     59  NZ        18.4010   23.6200   29.6360 N.3    59  LYS59      -0.1314
     60  N         15.0150   23.4080   23.7610 N.am   60  HIS60      -0.1962
     61  CA        14.7980   23.4220   22.3250 C.3    60  HIS60       0.1787
     62  C         15.8180   22.6200   21.6520 C.2    60  HIS60       0.2620
     63  O         16.9900   22.8820   21.8590 O.2    60  HIS60      -0.2715
     64  CB        14.8760   24.8710   21.7920 C.3    60  HIS60       0.0785
     65  CG        13.9700   25.8250   22.5160 C.ar   60  HIS60       0.0821
     66  ND1       12.6370   25.9710   22.2020 N.ar   60  HIS60      -0.2267
     67  CD2       14.2060   26.6790   23.5440 C.ar   60  HIS60       0.1154
     68  CE1       12.0930   26.8720   22.9990 C.ar   60  HIS60       0.1986
     69  NE2       13.0230   27.3130   23.8250 N.ar   60  HIS60      -0.2212
     70  N         15.4130   21.6770   20.8090 N.am   61  TYR61      -0.1960
     71  CA        16.3410   20.7980   20.1200 C.3    61  TYR61       0.1771
     72  C         16.2420   20.9990   18.6260 C.2    61  TYR61       0.2619
     73  O         15.1620   20.9630   18.0380 O.2    61  TYR61      -0.2715
     74  CB        16.0170   19.3190   20.4540 C.3    61  TYR61       0.0574
     75  CG        16.0080   19.0040   21.9340 C.ar   61  TYR61      -0.0198
     76  CD1       14.8330   19.1570   22.7110 C.ar   61  TYR61      -0.0009
     77  CD2       17.1860   18.6360   22.6080 C.ar   61  TYR61      -0.0009
     78  CE1       14.8360   18.9740   24.0750 C.ar   61  TYR61       0.0417
     79  CE2       17.1970   18.4490   23.9750 C.ar   61  TYR61       0.0417
     80  CZ        16.0220   18.6240   24.7030 C.ar   61  TYR61       0.1957
     81  OH        16.0440   18.5020   26.0460 O.3    61  TYR61      -0.2866
     82  N         17.3840   21.1270   17.9690 N.am   62  LYS62      -0.1977
     83  CA        17.3840   21.3170   16.5390 C.3    62  LYS62       0.1596
     84  C         17.2260   19.9970   15.8150 C.2    62  LYS62       0.2287
     85  O         17.9110   19.0530   16.1660 O.2    62  LYS62      -0.2864
     86  CB        18.7030   21.9480   16.0840 C.3    62  LYS62       0.0298
     87  CG        18.5800   22.1140   14.5860 C.3    62  LYS62       0.0038
     88  CD        19.7980   22.6820   13.9060 C.3    62  LYS62       0.0206
     89  CE        19.8820   24.1410   14.2110 C.3    62  LYS62       0.1093
     90  NZ        18.9420   24.8790   13.3210 N.3    62  LYS62      -0.1314
     91  N         18.0270   14.4890   15.4120 N.3    73  ILE73      -0.1231
     92  CA        18.5030   15.4730   16.3970 C.3    73  ILE73       0.1692
     93  C         20.0460   15.1530   16.4770 C.2    73  ILE73       0.2592
     94  O         20.8910   16.0660   16.4230 O.2    73  ILE73      -0.2718
     95  CB        17.8410   15.3380   17.7560 C.3    73  ILE73       0.0266
     96  CG1       16.3660   15.7450   17.6390 C.3    73  ILE73       0.0019
     97  CG2       18.5970   16.2040   18.7960 C.3    73  ILE73       0.0020
     98  CD1       15.5730   15.5510   18.9040 C.3    73  ILE73       0.0001
     99  N         20.3870   13.8720   16.6330 N.am   74  THR74      -0.1953
    100  CA        21.7900   13.4700   16.5860 C.3    74  THR74       0.1897
    101  C         21.9300   12.6210   15.3360 C.2    74  THR74       0.2313
    102  O         21.1020   11.7760   15.0650 O.2    74  THR74      -0.2863
    103  CB        22.2720   12.7230   17.8200 C.3    74  THR74       0.1794
    104  OG1       23.5750   12.1870   17.5460 O.3    74  THR74      -0.2208
    105  CG2       21.3030   11.6220   18.2310 C.3    74  THR74       0.0378
    106  N         10.9730    9.3770   20.0140 N.3    89  TYR89      -0.1241
    107  CA        11.2400   10.1690   21.2140 C.3    89  TYR89       0.1605
    108  C         10.0960   10.1950   22.2380 C.2    89  TYR89       0.2264
    109  O         10.2510   10.6970   23.3350 O.2    89  TYR89      -0.2867
    110  CB        11.8200   11.5440   20.8330 C.3    89  TYR89       0.0534
    111  CG        13.2570   11.4660   20.3120 C.ar   89  TYR89      -0.0201
    112  CD1       13.5510   11.7370   18.9720 C.ar   89  TYR89      -0.0009
    113  CD2       14.3170   11.0750   21.1580 C.ar   89  TYR89      -0.0009
    114  CE1       14.8490   11.6170   18.4870 C.ar   89  TYR89       0.0417
    115  CE2       15.6230   10.9550   20.6640 C.ar   89  TYR89       0.0417
    116  CZ        15.8600   11.2250   19.3330 C.ar   89  TYR89       0.1957
    117  OH        17.1130   11.0580   18.8070 O.3    89  TYR89      -0.2866
    118  N         16.4830    9.2790   25.8500 N.3    94  ASP94      -0.1225
    119  CA        17.8340    9.4130   25.2630 C.3    94  ASP94       0.1805
    120  C         18.4870   10.7150   25.7850 C.2    94  ASP94       0.2598
    121  O         18.6120   10.8590   27.0060 O.2    94  ASP94      -0.2718
    122  CB        17.7980    9.3250   23.7380 C.3    94  ASP94       0.1424
    123  CG        17.5090    7.9260   23.2440 C.2    94  ASP94       0.3668
    124  OD1       17.2100    7.0170   24.0770 O.co2  94  ASP94      -0.2456
    125  OD2       17.5480    7.7400   22.0070 O.co2  94  ASP94      -0.2456
    126  N         18.8330   11.6630   24.9060 N.am   95  GLY95      -0.1942
    127  CA        19.4520   12.9010   25.3770 C.3    95  GLY95       0.2014
    128  C         18.4760   14.0340   25.6860 C.2    95  GLY95       0.2638
    129  O         18.9100   15.0860   26.1310 O.2    95  GLY95      -0.2714
    130  N         17.1720   13.8010   25.4820 N.am   96  LEU96      -0.1977
    131  CA        16.1220   14.7850   25.7250 C.3    96  LEU96       0.1596
    132  C         15.8260   14.9850   27.2500 C.2    96  LEU96       0.2287
    133  O         16.0660   14.0750   28.0660 O.2    96  LEU96      -0.2864
    134  CB        14.8000   14.3680   25.0460 C.3    96  LEU96       0.0297
    135  CG        14.7680   14.2420   23.5210 C.3    96  LEU96       0.0022
    136  CD1       13.3490   13.9560   23.0660 C.3    96  LEU96       0.0001
    137  CD2       15.2940   15.5150   22.8500 C.3    96  LEU96       0.0001
@<TRIPOS>BOND
     1    41    40    2
     2    40    39    1
     3    32    31    2
     4    26    25    2
     5    39    38    1
     6    39    42    1
     7    27    28    1
     8    27    24    1
     9    31    38   am
    10    31    30    1
    11    23    24    1
    12    25    24    1
    13    25    29   am
    14    42    44    1
    15    42    43    1
    16    90    89    1
    17    30    29    1
    18    30    33    1
    19    14    15    2
    20    14    13    1
    21    88    89    1
    22    88    87    1
    23    87    86    1
    24    33    34    1
    25    13    12    1
    26    13    16    1
    27    45    46    1
    28   102   101    2
    29   101   100    1
    30    91    92    1
    31    16    17    1
    32    34    35    1
    33    84    85    2
    34    84    83    1
    35    86    83    1
    36    46    49    1
    37    46    47    1
    38    50    49    1
    39    92    93    1
    40    92    95    1
    41    94    93    2
    42    93    99   am
    43    83    82    1
    44   100    99    1
    45   100   103    1
    46    17    18    1
    47    48    47    2
    48    35    36   ar
    49    35    37   ar
    50    22    20    1
    51   104   103    1
    52    96    95    1
    53    96    98    1
    54    18    19    1
    55    95    97    1
    56   103   105    1
    57    82    72   am
    58    73    72    2
    59    20    19    2
    60    20    21    1
    61   114   112   ar
    62   114   116   ar
    63    72    71    1
    64   117   116    1
    65   112   111   ar
    66     1     2    1
    67   116   115   ar
    68   106   107    1
    69    71    74    1
    70    71    70    1
    71   111   110    1
    72   111   113   ar
    73     2     5    1
    74     2     3    1
    75    74    75    1
    76     5     6    1
    77   115   113   ar
    78    70    62   am
    79   110   107    1
    80   107   108    1
    81     3     4    2
    82    62    63    2
    83    62    61    1
    84     7     6    1
    85     7     8    1
    86    64    61    1
    87    64    65    1
    88    75    77   ar
    89    75    76   ar
    90   125   123   ar
    91     8     9    2
    92    66    65   ar
    93    66    68   ar
    94   108   109    2
    95    61    60    1
    96    65    67   ar
    97    77    79   ar
    98    76    78   ar
    99   137   135    1
   100    68    69   ar
   101   136   135    1
   102   123   122    1
   103   123   124   ar
   104     9    11    1
   105     9    10    1
   106   135   134    1
   107    67    69   ar
   108   122   119    1
   109    60    53   am
   110    79    80   ar
   111    78    80   ar
   112    54    53    2
   113    53    52    1
   114    80    81    1
   115   126   127    1
   116   126   120   am
   117   134   131    1
   118   119   120    1
   119   119   118    1
   120   127   128    1
   121   130   128   am
   122   130   131    1
   123   128   129    2
   124   131   132    1
   125   120   121    2
   126    52    55    1
   127    52    51    1
   128    55    56    1
   129   132   133    2
   130    56    57    1
   131    57    58    1
   132    58    59    1
