@<TRIPOS>MOLECULE
tmp/1o4bA00.pdb
 146 142 0 0 0
SMALL
GASTEIGER

@<TRIPOS>ATOM
      1  N         10.9090   31.5220   19.2290 N.3    14  ARG14      -0.1245
      2  CA        11.3460   30.8060   20.4070 C.3    14  ARG14       0.1563
      3  C         10.6180   31.3780   21.6280 C.2    14  ARG14       0.2260
      4  O         10.2680   30.6260   22.5100 O.2    14  ARG14      -0.2867
      5  CB        12.8640   30.9800   20.5800 C.3    14  ARG14       0.0307
      6  CG        13.4680   30.2100   21.7280 C.3    14  ARG14       0.0489
      7  CD        15.0160   30.2770   21.6510 C.3    14  ARG14       0.2205
      8  NE        15.6470   29.6500   22.8210 N.pl3  14  ARG14      -0.0865
      9  CZ        15.6860   30.1890   24.0560 C.cat  14  ARG14       0.5346
     10  NH1       15.1290   31.3810   24.2820 N.pl3  14  ARG14       0.1354
     11  NH2       16.2550   29.5330   25.0870 N.pl3  14  ARG14       0.1354
     12  N          8.4600   23.4920   15.4710 N.3    34  ARG34      -0.1231
     13  CA         8.3320   24.7580   14.7520 C.3    34  ARG34       0.1694
     14  C          9.4880   24.9210   13.7920 C.2    34  ARG34       0.2592
     15  O         10.3930   24.0970   13.8070 O.2    34  ARG34      -0.2718
     16  CB         8.3550   25.9050   15.7510 C.3    34  ARG34       0.0321
     17  CG         9.5140   25.8390   16.6500 C.3    34  ARG34       0.0489
     18  CD         9.4480   26.9450   17.6670 C.3    34  ARG34       0.2205
     19  NE        10.5580   26.8920   18.6000 N.pl3  34  ARG34      -0.0865
     20  CZ        11.6520   27.6460   18.5050 C.cat  34  ARG34       0.5346
     21  NH1       12.6160   27.5050   19.4030 N.pl3  34  ARG34       0.1354
     22  NH2       11.7610   28.5580   17.5380 N.pl3  34  ARG34       0.1354
     23  N          9.4530   25.9370   12.9370 N.am   35  GLU35      -0.1966
     24  CA        10.5740   26.1520   12.0300 C.3    35  GLU35       0.1733
     25  C         11.7710   26.6110   12.8760 C.2    35  GLU35       0.2617
     26  O         11.6680   27.2070   13.9480 O.2    35  GLU35      -0.2715
     27  CB        10.3090   27.2830   11.0250 C.3    35  GLU35       0.0429
     28  CG         9.2970   27.0260    9.9670 C.3    35  GLU35       0.1163
     29  CD         9.2020   28.1980    9.0070 C.2    35  GLU35       0.3649
     30  OE1        8.3520   28.1450    8.0980 O.co2  35  GLU35      -0.2457
     31  OE2        9.9640   29.1800    9.1600 O.co2  35  GLU35      -0.2457
     32  N         12.9420   26.3060   12.3380 N.am   36  SER36      -0.1936
     33  CA        14.2240   26.7090   12.8970 C.3    36  SER36       0.2055
     34  C         14.3430   28.2240   12.6050 C.2    36  SER36       0.2643
     35  O         14.2530   28.6250   11.4490 O.2    36  SER36      -0.2714
     36  CB        15.3170   25.9460   12.1450 C.3    36  SER36       0.2130
     37  OG        16.5650   26.6220   12.1590 O.3    36  SER36      -0.2179
     38  N         14.4570   29.0620   13.6260 N.am   37  GLU37      -0.1963
     39  CA        14.5710   30.5020   13.4180 C.3    37  GLU37       0.1733
     40  C         15.7370   30.9110   12.5010 C.2    37  GLU37       0.2617
     41  O         15.6960   31.9940   11.8810 O.2    37  GLU37      -0.2715
     42  CB        14.7540   31.2220   14.7450 C.3    37  GLU37       0.0429
     43  CG        13.5340   31.4450   15.6040 C.3    37  GLU37       0.1163
     44  CD        13.8570   32.3930   16.7440 C.2    37  GLU37       0.3649
     45  OE1       15.0600   32.5590   17.0160 O.co2  37  GLU37      -0.2457
     46  OE2       12.9550   33.0040   17.3620 O.co2  37  GLU37      -0.2457
     47  N         16.7890   30.1030   12.4060 N.am   38  THR38      -0.1951
     48  CA        17.8930   30.5230   11.5610 C.3    38  THR38       0.1897
     49  C         18.4680   29.4970   10.6140 C.2    38  THR38       0.2313
     50  O         19.1870   29.8200    9.6620 O.2    38  THR38      -0.2863
     51  CB        18.9970   31.2010   12.3820 C.3    38  THR38       0.1794
     52  OG1       19.3850   30.3450   13.4350 O.3    38  THR38      -0.2208
     53  CG2       18.4970   32.5520   12.9680 C.3    38  THR38       0.0378
     54  N         12.7140   22.9100   14.8370 N.3    44  CYS44      -0.1235
     55  CA        13.0170   23.0060   16.2270 C.3    44  CYS44       0.1677
     56  C         11.9690   22.2510   17.0180 C.2    44  CYS44       0.2270
     57  O         10.7850   22.3590   16.7200 O.2    44  CYS44      -0.2867
     58  CB        13.0750   24.4660   16.6570 C.3    44  CYS44       0.0956
     59  SG        13.6280   24.5280   18.2800 S.3    44  CYS44      -0.0801
     60  N         13.1520   23.3990   26.7870 N.3    59  LYS59      -0.1231
     61  CA        14.3870   23.0400   26.0750 C.3    59  LYS59       0.1693
     62  C         14.0600   23.0100   24.5820 C.2    59  LYS59       0.2592
     63  O         12.9380   22.6810   24.1890 O.2    59  LYS59      -0.2718
     64  CB        14.9160   21.7070   26.5670 C.3    59  LYS59       0.0285
     65  CG        15.4910   21.7310   27.9680 C.3    59  LYS59       0.0035
     66  CD        16.8630   22.4890   27.9780 C.3    59  LYS59       0.0206
     67  CE        17.5390   22.3740   29.4260 C.3    59  LYS59       0.1093
     68  NZ        19.0280   22.6340   29.5010 N.3    59  LYS59      -0.1314
     69  N         15.0080   23.4080   23.7370 N.am   60  HIS60      -0.1962
     70  CA        14.7800   23.4440   22.3160 C.3    60  HIS60       0.1787
     71  C         15.8260   22.6050   21.6360 C.2    60  HIS60       0.2620
     72  O         16.9860   22.7850   21.9210 O.2    60  HIS60      -0.2715
     73  CB        14.8810   24.8830   21.7840 C.3    60  HIS60       0.0785
     74  CG        13.9950   25.8400   22.5280 C.ar   60  HIS60       0.0821
     75  ND1       12.7170   26.1360   22.1280 N.ar   60  HIS60      -0.2267
     76  CD2       14.2190   26.5760   23.6460 C.ar   60  HIS60       0.1154
     77  CE1       12.2010   27.0330   22.9490 C.ar   60  HIS60       0.1986
     78  NE2       13.0910   27.3160   23.8810 N.ar   60  HIS60      -0.2212
     79  N         15.3990   21.6870   20.7920 N.am   61  TYR61      -0.1960
     80  CA        16.2770   20.7730   20.0760 C.3    61  TYR61       0.1771
     81  C         16.1720   21.0030   18.5890 C.2    61  TYR61       0.2619
     82  O         15.1090   20.9190   17.9700 O.2    61  TYR61      -0.2715
     83  CB        15.9220   19.3070   20.3980 C.3    61  TYR61       0.0574
     84  CG        15.9530   19.0230   21.8730 C.ar   61  TYR61      -0.0198
     85  CD1       14.7790   19.1150   22.6340 C.ar   61  TYR61      -0.0009
     86  CD2       17.1600   18.7510   22.5440 C.ar   61  TYR61      -0.0009
     87  CE1       14.7950   18.9570   23.9930 C.ar   61  TYR61       0.0417
     88  CE2       17.1750   18.5850   23.9140 C.ar   61  TYR61       0.0417
     89  CZ        15.9700   18.6950   24.6250 C.ar   61  TYR61       0.1957
     90  OH        15.9270   18.5560   25.9720 O.3    61  TYR61      -0.2866
     91  N         17.3270   21.2500   17.9820 N.am   62  LYS62      -0.1977
     92  CA        17.3860   21.4920   16.5710 C.3    62  LYS62       0.1596
     93  C         17.2610   20.1850   15.8080 C.2    62  LYS62       0.2287
     94  O         17.9480   19.2180   16.1560 O.2    62  LYS62      -0.2864
     95  CB        18.7060   22.2020   16.2040 C.3    62  LYS62       0.0298
     96  CG        18.7430   22.5630   14.7870 C.3    62  LYS62       0.0038
     97  CD        19.8890   23.4670   14.3970 C.3    62  LYS62       0.0206
     98  CE        19.7760   24.8160   15.0530 C.3    62  LYS62       0.1093
     99  NZ        20.3220   26.0090   14.2320 N.3    62  LYS62      -0.1314
    100  N         18.0870   14.6300   15.3310 N.3    73  ILE73      -0.1231
    101  CA        18.5490   15.5940   16.3240 C.3    73  ILE73       0.1692
    102  C         20.0550   15.2800   16.3930 C.2    73  ILE73       0.2592
    103  O         20.8840   16.1930   16.2920 O.2    73  ILE73      -0.2718
    104  CB        17.8670   15.4400   17.6560 C.3    73  ILE73       0.0266
    105  CG1       16.4280   15.9730   17.5390 C.3    73  ILE73       0.0019
    106  CG2       18.6280   16.2580   18.7350 C.3    73  ILE73       0.0020
    107  CD1       15.6270   15.6840   18.7720 C.3    73  ILE73       0.0001
    108  N         20.4080   14.0000   16.5350 N.am   74  THR74      -0.1953
    109  CA        21.8210   13.6050   16.4770 C.3    74  THR74       0.1897
    110  C         21.9950   12.7590   15.2270 C.2    74  THR74       0.2313
    111  O         21.2250   11.8440   14.9920 O.2    74  THR74      -0.2863
    112  CB        22.3300   12.8360   17.7080 C.3    74  THR74       0.1794
    113  OG1       23.6950   12.4380   17.4610 O.3    74  THR74      -0.2208
    114  CG2       21.4410   11.6030   18.0540 C.3    74  THR74       0.0378
    115  N         10.8700    9.6350   19.6900 N.3    89  TYR89      -0.1241
    116  CA        11.1450   10.3560   20.9270 C.3    89  TYR89       0.1605
    117  C          9.9860   10.3790   21.9410 C.2    89  TYR89       0.2264
    118  O         10.1740   10.7750   23.0830 O.2    89  TYR89      -0.2867
    119  CB        11.7670   11.7270   20.6260 C.3    89  TYR89       0.0534
    120  CG        13.2080   11.5840   20.1320 C.ar   89  TYR89      -0.0201
    121  CD1       13.5460   11.8720   18.8130 C.ar   89  TYR89      -0.0009
    122  CD2       14.2170   11.0860   20.9840 C.ar   89  TYR89      -0.0009
    123  CE1       14.8260   11.6660   18.3270 C.ar   89  TYR89       0.0417
    124  CE2       15.5380   10.8850   20.5070 C.ar   89  TYR89       0.0417
    125  CZ        15.8200   11.1770   19.1690 C.ar   89  TYR89       0.1957
    126  OH        17.0770   11.0010   18.6300 O.3    89  TYR89      -0.2866
    127  N         16.3350    9.2890   25.7370 N.3    94  ASP94      -0.1225
    128  CA        17.6830    9.4490   25.1640 C.3    94  ASP94       0.1805
    129  C         18.3630   10.7270   25.6930 C.2    94  ASP94       0.2598
    130  O         18.5460   10.8220   26.9110 O.2    94  ASP94      -0.2718
    131  CB        17.6460    9.4170   23.6240 C.3    94  ASP94       0.1424
    132  CG        17.3850    8.0100   23.0650 C.2    94  ASP94       0.3668
    133  OD1       17.1780    7.0560   23.8770 O.co2  94  ASP94      -0.2456
    134  OD2       17.3880    7.8690   21.8080 O.co2  94  ASP94      -0.2456
    135  N         18.7150   11.6780   24.8250 N.am   95  GLY95      -0.1942
    136  CA        19.3630   12.9220   25.2600 C.3    95  GLY95       0.2014
    137  C         18.3960   14.0690   25.5060 C.2    95  GLY95       0.2638
    138  O         18.8160   15.1730   25.8550 O.2    95  GLY95      -0.2714
    139  N         17.0840   13.8100   25.3710 N.am   96  LEU96      -0.1977
    140  CA        16.0580   14.8510   25.6140 C.3    96  LEU96       0.1596
    141  C         15.7940   15.0630   27.1190 C.2    96  LEU96       0.2287
    142  O         16.0790   14.2260   28.0020 O.2    96  LEU96      -0.2864
    143  CB        14.7310   14.4690   24.9070 C.3    96  LEU96       0.0297
    144  CG        14.6550   14.2480   23.4040 C.3    96  LEU96       0.0022
    145  CD1       13.1900   14.0290   23.0290 C.3    96  LEU96       0.0001
    146  CD2       15.2000   15.4650   22.6430 C.3    96  LEU96       0.0001
@<TRIPOS>BOND
     1    30    29   ar
     2    29    31   ar
     3    29    28    1
     4    50    49    2
     5    28    27    1
     6    49    48    1
     7    27    24    1
     8    35    34    2
     9    48    51    1
    10    48    47    1
    11    41    40    2
    12    24    25    1
    13    24    23    1
    14    36    37    1
    15    36    33    1
    16    32    25   am
    17    32    33    1
    18    51    53    1
    19    51    52    1
    20    47    40   am
    21    40    39    1
    22    34    33    1
    23    34    38   am
    24    25    26    2
    25    23    14   am
    26    39    38    1
    27    39    42    1
    28    14    15    2
    29    14    13    1
    30    99    98    1
    31    97    96    1
    32    97    98    1
    33    42    43    1
    34    13    12    1
    35    13    16    1
    36    96    95    1
    37    54    55    1
    38   111   110    2
    39   110   109    1
    40   100   101    1
    41    43    44    1
    42    16    17    1
    43    93    94    2
    44    93    92    1
    45    95    92    1
    46    55    58    1
    47    55    56    1
    48   103   102    2
    49   101   102    1
    50   101   104    1
    51   102   108   am
    52   109   108    1
    53   109   112    1
    54    92    91    1
    55    17    18    1
    56    58    59    1
    57    57    56    2
    58    44    45   ar
    59    44    46   ar
    60   113   112    1
    61    22    20    1
    62   105   104    1
    63   105   107    1
    64   104   106    1
    65    18    19    1
    66   112   114    1
    67    82    81    2
    68    91    81   am
    69   123   121   ar
    70   123   125   ar
    71    20    19    2
    72    20    21    1
    73    81    80    1
    74   126   125    1
    75   121   120   ar
    76   125   124   ar
    77     1     2    1
    78   115   116    1
    79    80    83    1
    80    80    79    1
    81   120   119    1
    82   120   122   ar
    83    83    84    1
    84     2     5    1
    85     2     3    1
    86   124   122   ar
    87     5     6    1
    88   119   116    1
    89    79    71   am
    90   116   117    1
    91     3     4    2
    92    71    72    2
    93    71    70    1
    94     7     6    1
    95     7     8    1
    96    73    70    1
    97    73    74    1
    98   134   132   ar
    99    84    86   ar
   100    84    85   ar
   101   117   118    2
   102    75    74   ar
   103    75    77   ar
   104    70    69    1
   105    74    76   ar
   106    86    88   ar
   107    85    87   ar
   108   146   144    1
   109     8     9    2
   110    77    78   ar
   111   145   144    1
   112   132   131    1
   113   132   133   ar
   114   144   143    1
   115   131   128    1
   116    76    78   ar
   117    69    62   am
   118    88    89   ar
   119    87    89   ar
   120     9    10    1
   121     9    11    1
   122    63    62    2
   123    62    61    1
   124    89    90    1
   125   135   136    1
   126   135   129   am
   127   143   140    1
   128   128   129    1
   129   128   127    1
   130   136   137    1
   131   139   137   am
   132   139   140    1
   133   137   138    2
   134   140   141    1
   135   129   130    2
   136    61    64    1
   137    61    60    1
   138    64    65    1
   139   141   142    2
   140    65    66    1
   141    66    67    1
   142    67    68    1
