@<TRIPOS>MOLECULE
tmp/1o4dA00.pdb
 93 91 0 0 0
SMALL
GASTEIGER

@<TRIPOS>ATOM
      1  N         10.5550   31.4060   19.2310 N.3    14  ARG14      -0.1245
      2  CA        11.0420   30.7510   20.4210 C.3    14  ARG14       0.1563
      3  C         10.3290   31.3300   21.6540 C.2    14  ARG14       0.2260
      4  O          9.9250   30.5890   22.5610 O.2    14  ARG14      -0.2867
      5  CB        12.5260   31.0090   20.5230 C.3    14  ARG14       0.0307
      6  CG        13.1580   30.4690   21.7550 C.3    14  ARG14       0.0489
      7  CD        14.5520   30.9700   21.7210 C.3    14  ARG14       0.2205
      8  NE        15.3530   30.5040   22.8260 N.pl3  14  ARG14      -0.0865
      9  CZ        16.4890   29.8370   22.6620 C.cat  14  ARG14       0.5346
     10  NH1       17.1880   29.4350   23.7200 N.pl3  14  ARG14       0.1354
     11  NH2       16.9130   29.5610   21.4330 N.pl3  14  ARG14       0.1354
     12  N          8.5220   23.1950   16.0450 N.3    34  ARG34      -0.1245
     13  CA         8.3380   24.4310   15.2910 C.3    34  ARG34       0.1563
     14  C          9.5080   24.6170   14.3380 C.2    34  ARG34       0.2260
     15  O         10.4480   23.8340   14.3260 O.2    34  ARG34      -0.2867
     16  CB         8.2670   25.6270   16.2690 C.3    34  ARG34       0.0307
     17  CG         9.5450   25.7790   17.1070 C.3    34  ARG34       0.0489
     18  CD         9.4570   26.9420   18.0500 C.3    34  ARG34       0.2205
     19  NE        10.5850   26.9820   18.9890 N.pl3  34  ARG34      -0.0865
     20  CZ        11.7610   27.5370   18.7370 C.cat  34  ARG34       0.5346
     21  NH1       12.7100   27.5160   19.6640 N.pl3  34  ARG34       0.1354
     22  NH2       11.9780   28.1330   17.5690 N.pl3  34  ARG34       0.1354
     23  N         12.8170   26.5020   13.0890 N.3    36  SER36      -0.1202
     24  CA        13.8720   27.2170   13.7660 C.3    36  SER36       0.2020
     25  C         13.8300   28.6920   13.2840 C.2    36  SER36       0.2619
     26  O         13.4910   28.9720   12.1320 O.2    36  SER36      -0.2717
     27  CB        15.2100   26.5910   13.4230 C.3    36  SER36       0.2103
     28  OG        16.2610   27.4770   13.7590 O.3    36  SER36      -0.2182
     29  N         14.1470   29.6260   14.1730 N.am   37  GLU37      -0.1965
     30  CA        14.1760   31.0510   13.8200 C.3    37  GLU37       0.1733
     31  C         15.3630   31.4070   12.9340 C.2    37  GLU37       0.2617
     32  O         15.2590   32.2320   12.0340 O.2    37  GLU37      -0.2715
     33  CB        14.3060   31.9110   15.0750 C.3    37  GLU37       0.0429
     34  CG        13.0260   32.0910   15.8440 C.3    37  GLU37       0.1163
     35  CD        13.2000   32.9980   17.0400 C.2    37  GLU37       0.3649
     36  OE1       14.3140   33.5350   17.2680 O.co2  37  GLU37      -0.2457
     37  OE2       12.2140   33.1870   17.7760 O.co2  37  GLU37      -0.2457
     38  N         16.5000   30.7950   13.2280 N.am   38  THR38      -0.1951
     39  CA        17.7360   31.0900   12.5350 C.3    38  THR38       0.1897
     40  C         18.2810   30.0520   11.5710 C.2    38  THR38       0.2313
     41  O         19.0830   30.3830   10.6860 O.2    38  THR38      -0.2863
     42  CB        18.8320   31.4160   13.5650 C.3    38  THR38       0.1794
     43  OG1       18.7380   30.5110   14.6860 O.3    38  THR38      -0.2208
     44  CG2       18.6950   32.8670   14.0600 C.3    38  THR38       0.0378
     45  N         14.3870   22.1240   12.2970 N.3    43  TYR43      -0.1227
     46  CA        13.2100   22.2880   13.1270 C.3    43  TYR43       0.1736
     47  C         13.7110   22.3980   14.5460 C.2    43  TYR43       0.2595
     48  O         14.8880   22.1560   14.8390 O.2    43  TYR43      -0.2718
     49  CB        12.2650   21.1020   13.0100 C.3    43  TYR43       0.0548
     50  CG        11.6600   20.9930   11.6630 C.ar   43  TYR43      -0.0200
     51  CD1       12.1490   20.0770   10.7390 C.ar   43  TYR43      -0.0009
     52  CD2       10.5950   21.8100   11.3090 C.ar   43  TYR43      -0.0009
     53  CE1       11.5780   19.9690    9.4760 C.ar   43  TYR43       0.0417
     54  CE2       10.0140   21.7280   10.0700 C.ar   43  TYR43       0.0417
     55  CZ        10.4990   20.8030    9.1440 C.ar   43  TYR43       0.1957
     56  OH         9.8850   20.7100    7.9000 O.3    43  TYR43      -0.2866
     57  N         12.7760   22.7250   15.4180 N.am   44  CYS44      -0.1970
     58  CA        13.0660   22.9170   16.7980 C.3    44  CYS44       0.1712
     59  C         12.0330   22.1980   17.6480 C.2    44  CYS44       0.2296
     60  O         10.8340   22.3700   17.4440 O.2    44  CYS44      -0.2864
     61  CB        13.0220   24.4010   17.1050 C.3    44  CYS44       0.0983
     62  SG        14.1170   24.7480   18.5050 S.3    44  CYS44      -0.0798
     63  N         15.1710   23.5650   24.3880 N.3    60  HIS60      -0.1226
     64  CA        14.9980   23.5730   22.9190 C.3    60  HIS60       0.1752
     65  C         16.0720   22.7040   22.2790 C.2    60  HIS60       0.2596
     66  O         17.2460   22.8090   22.6220 O.2    60  HIS60      -0.2718
     67  CB        15.1260   24.9910   22.3700 C.3    60  HIS60       0.0759
     68  CG        14.1850   25.9690   22.9970 C.ar   60  HIS60       0.0818
     69  ND1       12.8680   26.0720   22.6270 N.ar   60  HIS60      -0.2268
     70  CD2       14.3750   26.8820   23.9760 C.ar   60  HIS60       0.1154
     71  CE1       12.2740   27.0050   23.3430 C.ar   60  HIS60       0.1986
     72  NE2       13.1710   27.5160   24.1730 N.ar   60  HIS60      -0.2212
     73  N         15.6650   21.8170   21.3790 N.am   61  TYR61      -0.1962
     74  CA        16.5910   20.9240   20.7010 C.3    61  TYR61       0.1771
     75  C         16.4490   21.0960   19.2030 C.2    61  TYR61       0.2619
     76  O         15.3400   21.1860   18.6730 O.2    61  TYR61      -0.2715
     77  CB        16.2950   19.4530   21.0690 C.3    61  TYR61       0.0574
     78  CG        16.3840   19.1910   22.5510 C.ar   61  TYR61      -0.0198
     79  CD1       15.2300   19.1700   23.3380 C.ar   61  TYR61      -0.0009
     80  CD2       17.6330   19.0230   23.1870 C.ar   61  TYR61      -0.0009
     81  CE1       15.3040   18.9920   24.7290 C.ar   61  TYR61       0.0417
     82  CE2       17.7210   18.8450   24.5870 C.ar   61  TYR61       0.0417
     83  CZ        16.5480   18.8290   25.3320 C.ar   61  TYR61       0.1957
     84  OH        16.5870   18.6250   26.6720 O.3    61  TYR61      -0.2866
     85  N         17.5670   21.1510   18.5100 N.am   62  LYS62      -0.1977
     86  CA        17.5660   21.3160   17.0730 C.3    62  LYS62       0.1596
     87  C         17.4410   19.9760   16.3680 C.2    62  LYS62       0.2287
     88  O         18.1800   19.0430   16.6840 O.2    62  LYS62      -0.2864
     89  CB        18.8490   21.9930   16.6470 C.3    62  LYS62       0.0298
     90  CG        18.8050   22.4220   15.2110 C.3    62  LYS62       0.0038
     91  CD        19.6020   23.6780   14.9880 C.3    62  LYS62       0.0206
     92  CE        19.1460   24.7780   15.9470 C.3    62  LYS62       0.1093
     93  NZ        19.4350   26.1100   15.3630 N.3    62  LYS62      -0.1314
@<TRIPOS>BOND
     1    56    55    1
     2    55    53   ar
     3    55    54   ar
     4    53    51   ar
     5    54    52   ar
     6    41    40    2
     7    51    50   ar
     8    52    50   ar
     9    40    39    1
    10    50    49    1
    11    32    31    2
    12    26    25    2
    13    45    46    1
    14    39    38    1
    15    39    42    1
    16    31    38   am
    17    31    30    1
    18    49    46    1
    19    23    24    1
    20    46    47    1
    21    25    24    1
    22    25    29   am
    23    27    28    1
    24    27    24    1
    25    42    44    1
    26    42    43    1
    27    30    29    1
    28    30    33    1
    29    15    14    2
    30    14    13    1
    31    47    48    2
    32    47    57   am
    33    91    90    1
    34    91    92    1
    35    33    34    1
    36    90    89    1
    37    13    12    1
    38    13    16    1
    39    93    92    1
    40    57    58    1
    41    34    35    1
    42    16    17    1
    43    87    88    2
    44    87    86    1
    45    89    86    1
    46    58    61    1
    47    58    59    1
    48    35    36   ar
    49    35    37   ar
    50    86    85    1
    51    61    62    1
    52    17    18    1
    53    60    59    2
    54    22    20    1
    55    18    19    1
    56    85    75   am
    57    76    75    2
    58    20    19    2
    59    20    21    1
    60    75    74    1
    61     1     2    1
    62     2     5    1
    63     2     3    1
    64     5     6    1
    65    74    77    1
    66    74    73    1
    67    77    78    1
    68    73    65   am
    69    11     9    1
    70     3     4    2
    71     7     6    1
    72     7     8    1
    73    65    66    2
    74    65    64    1
    75    67    64    1
    76    67    68    1
    77    78    80   ar
    78    78    79   ar
    79    69    68   ar
    80    69    71   ar
    81     9     8    2
    82     9    10    1
    83    64    63    1
    84    68    70   ar
    85    80    82   ar
    86    79    81   ar
    87    71    72   ar
    88    70    72   ar
    89    82    83   ar
    90    81    83   ar
    91    83    84    1
