@<TRIPOS>MOLECULE
tmp/1o4eA00.pdb
 93 91 0 0 0
SMALL
GASTEIGER

@<TRIPOS>ATOM
      1  N         10.6640   31.5740   19.3050 N.3    14  ARG14      -0.1245
      2  CA        11.2060   30.8960   20.4580 C.3    14  ARG14       0.1563
      3  C         10.4870   31.4100   21.7060 C.2    14  ARG14       0.2260
      4  O         10.1670   30.6200   22.6210 O.2    14  ARG14      -0.2867
      5  CB        12.6940   31.2090   20.5780 C.3    14  ARG14       0.0307
      6  CG        13.2680   30.6180   21.7750 C.3    14  ARG14       0.0489
      7  CD        14.7250   30.9220   22.0270 C.3    14  ARG14       0.2205
      8  NE        14.8630   30.6400   23.4440 N.pl3  14  ARG14      -0.0865
      9  CZ        15.3700   31.4910   24.3220 C.cat  14  ARG14       0.5346
     10  NH1       15.8730   32.6500   23.9600 N.pl3  14  ARG14       0.1354
     11  NH2       15.0390   31.3670   25.6030 N.pl3  14  ARG14       0.1354
     12  N          8.5030   23.3350   15.8050 N.3    34  ARG34      -0.1245
     13  CA         8.2730   24.5950   15.0710 C.3    34  ARG34       0.1563
     14  C          9.4570   24.8390   14.1640 C.2    34  ARG34       0.2260
     15  O         10.4250   24.1160   14.2080 O.2    34  ARG34      -0.2867
     16  CB         8.1960   25.7610   16.0500 C.3    34  ARG34       0.0307
     17  CG         9.4110   25.7980   16.9900 C.3    34  ARG34       0.0489
     18  CD         9.4340   27.0610   17.8000 C.3    34  ARG34       0.2205
     19  NE        10.5190   27.1110   18.7890 N.pl3  34  ARG34      -0.0865
     20  CZ        11.6850   27.7220   18.5990 C.cat  34  ARG34       0.5346
     21  NH1       12.5860   27.7340   19.5740 N.pl3  34  ARG34       0.1354
     22  NH2       11.9570   28.2830   17.4270 N.pl3  34  ARG34       0.1354
     23  N         12.7770   26.6930   12.8610 N.3    36  SER36      -0.1202
     24  CA        13.8870   27.3570   13.5600 C.3    36  SER36       0.2020
     25  C         13.8650   28.8560   13.1210 C.2    36  SER36       0.2619
     26  O         13.6090   29.1660   11.9380 O.2    36  SER36      -0.2717
     27  CB        15.2140   26.7020   13.1610 C.3    36  SER36       0.2103
     28  OG        16.3040   27.5870   13.3550 O.3    36  SER36      -0.2182
     29  N         14.0780   29.7700   14.0710 N.am   37  GLU37      -0.1965
     30  CA        14.0730   31.2240   13.7910 C.3    37  GLU37       0.1733
     31  C         15.2010   31.6620   12.8370 C.2    37  GLU37       0.2617
     32  O         15.0350   32.5620   11.9750 O.2    37  GLU37      -0.2715
     33  CB        14.2680   32.0150   15.0860 C.3    37  GLU37       0.0429
     34  CG        13.0590   32.1490   16.0010 C.3    37  GLU37       0.1163
     35  CD        13.3400   33.1070   17.1450 C.2    37  GLU37       0.3649
     36  OE1       14.4900   33.5550   17.2770 O.co2  37  GLU37      -0.2457
     37  OE2       12.4310   33.4150   17.9360 O.co2  37  GLU37      -0.2457
     38  N         16.3340   30.9880   13.0170 N.am   38  THR38      -0.1951
     39  CA        17.5810   31.2450   12.3170 C.3    38  THR38       0.1897
     40  C         18.0780   30.2310   11.2670 C.2    38  THR38       0.2313
     41  O         18.6000   30.6240   10.2100 O.2    38  THR38      -0.2863
     42  CB        18.7110   31.4760   13.3920 C.3    38  THR38       0.1794
     43  OG1       18.9740   30.2560   14.1090 O.3    38  THR38      -0.2208
     44  CG2       18.2720   32.5270   14.4160 C.3    38  THR38       0.0378
     45  N         14.2610   22.3220   12.0410 N.3    43  TYR43      -0.1227
     46  CA        13.0830   22.4050   12.8610 C.3    43  TYR43       0.1736
     47  C         13.5910   22.4990   14.2770 C.2    43  TYR43       0.2595
     48  O         14.7620   22.2510   14.5500 O.2    43  TYR43      -0.2718
     49  CB        12.1840   21.1800   12.7060 C.3    43  TYR43       0.0548
     50  CG        11.5280   21.0570   11.3620 C.ar   43  TYR43      -0.0200
     51  CD1       11.8850   20.0430   10.4680 C.ar   43  TYR43      -0.0009
     52  CD2       10.5200   21.9380   10.9990 C.ar   43  TYR43      -0.0009
     53  CE1       11.2340   19.9150    9.2370 C.ar   43  TYR43       0.0417
     54  CE2        9.8720   21.8270    9.7930 C.ar   43  TYR43       0.0417
     55  CZ        10.2200   20.8200    8.9090 C.ar   43  TYR43       0.1957
     56  OH         9.5210   20.7540    7.7120 O.3    43  TYR43      -0.2866
     57  N         12.7230   22.8490   15.1970 N.am   44  CYS44      -0.1970
     58  CA        13.0900   23.0100   16.5670 C.3    44  CYS44       0.1712
     59  C         12.0770   22.2740   17.4060 C.2    44  CYS44       0.2296
     60  O         10.9030   22.4370   17.1740 O.2    44  CYS44      -0.2864
     61  CB        13.0080   24.4710   16.9090 C.3    44  CYS44       0.0983
     62  SG        14.0640   24.8700   18.2840 S.3    44  CYS44      -0.0798
     63  N         15.2180   23.4400   24.0920 N.3    60  HIS60      -0.1226
     64  CA        15.0590   23.4660   22.6520 C.3    60  HIS60       0.1752
     65  C         16.0950   22.5650   22.0310 C.2    60  HIS60       0.2596
     66  O         17.2480   22.6090   22.4390 O.2    60  HIS60      -0.2718
     67  CB        15.2500   24.9020   22.1280 C.3    60  HIS60       0.0759
     68  CG        14.2880   25.8780   22.7250 C.ar   60  HIS60       0.0818
     69  ND1       12.9710   25.9620   22.3350 N.ar   60  HIS60      -0.2268
     70  CD2       14.4280   26.7400   23.7610 C.ar   60  HIS60       0.1154
     71  CE1       12.3370   26.8190   23.1090 C.ar   60  HIS60       0.1986
     72  NE2       13.2030   27.3030   23.9860 N.ar   60  HIS60      -0.2212
     73  N         15.6960   21.7720   21.0450 N.am   61  TYR61      -0.1962
     74  CA        16.6100   20.8620   20.3770 C.3    61  TYR61       0.1771
     75  C         16.4420   21.0850   18.8850 C.2    61  TYR61       0.2619
     76  O         15.3350   21.1880   18.3830 O.2    61  TYR61      -0.2715
     77  CB        16.2630   19.3910   20.7260 C.3    61  TYR61       0.0574
     78  CG        16.2770   19.1030   22.2090 C.ar   61  TYR61      -0.0198
     79  CD1       15.1140   19.1800   22.9770 C.ar   61  TYR61      -0.0009
     80  CD2       17.4770   18.8650   22.8680 C.ar   61  TYR61      -0.0009
     81  CE1       15.1520   19.0520   24.3660 C.ar   61  TYR61       0.0417
     82  CE2       17.5200   18.7340   24.2460 C.ar   61  TYR61       0.0417
     83  CZ        16.3700   18.8300   24.9840 C.ar   61  TYR61       0.1957
     84  OH        16.4770   18.6970   26.3260 O.3    61  TYR61      -0.2866
     85  N         17.5400   21.1240   18.1620 N.am   62  LYS62      -0.1977
     86  CA        17.4890   21.3220   16.7310 C.3    62  LYS62       0.1596
     87  C         17.3350   20.0210   15.9770 C.2    62  LYS62       0.2287
     88  O         18.0790   19.0830   16.1760 O.2    62  LYS62      -0.2864
     89  CB        18.7410   22.0490   16.2610 C.3    62  LYS62       0.0298
     90  CG        18.7550   22.2800   14.7640 C.3    62  LYS62       0.0038
     91  CD        19.4940   23.5580   14.3910 C.3    62  LYS62       0.0206
     92  CE        18.7020   24.7960   14.8470 C.3    62  LYS62       0.1093
     93  NZ        19.5610   26.0150   14.7850 N.3    62  LYS62      -0.1314
@<TRIPOS>BOND
     1    56    55    1
     2    55    53   ar
     3    55    54   ar
     4    53    51   ar
     5    54    52   ar
     6    41    40    2
     7    51    50   ar
     8    52    50   ar
     9    40    39    1
    10    50    49    1
    11    26    25    2
    12    32    31    2
    13    45    46    1
    14    39    38    1
    15    39    42    1
    16    49    46    1
    17    31    38   am
    18    31    30    1
    19    23    24    1
    20    46    47    1
    21    25    24    1
    22    25    29   am
    23    27    28    1
    24    27    24    1
    25    42    43    1
    26    42    44    1
    27    30    29    1
    28    30    33    1
    29    14    15    2
    30    14    13    1
    31    47    48    2
    32    47    57   am
    33    91    90    1
    34    91    92    1
    35    90    89    1
    36    93    92    1
    37    13    12    1
    38    13    16    1
    39    33    34    1
    40    57    58    1
    41    87    88    2
    42    87    86    1
    43    34    35    1
    44    16    17    1
    45    89    86    1
    46    58    61    1
    47    58    59    1
    48    86    85    1
    49    61    62    1
    50    17    18    1
    51    35    36   ar
    52    35    37   ar
    53    60    59    2
    54    22    20    1
    55    18    19    1
    56    85    75   am
    57    76    75    2
    58    20    19    2
    59    20    21    1
    60    75    74    1
    61     1     2    1
    62    74    77    1
    63    74    73    1
    64     2     5    1
    65     2     3    1
    66     5     6    1
    67    77    78    1
    68    73    65   am
    69     3     4    2
    70     6     7    1
    71     7     8    1
    72    65    66    2
    73    65    64    1
    74    67    64    1
    75    67    68    1
    76    78    80   ar
    77    78    79   ar
    78    69    68   ar
    79    69    71   ar
    80    64    63    1
    81    68    70   ar
    82    80    82   ar
    83    79    81   ar
    84    71    72   ar
    85     8     9    2
    86    70    72   ar
    87    10     9    1
    88    82    83   ar
    89     9    11    1
    90    81    83   ar
    91    83    84    1
