@<TRIPOS>MOLECULE
tmp/1o4iA00.pdb
 100 98 0 0 0
SMALL
GASTEIGER

@<TRIPOS>ATOM
      1  N         10.6220   30.9840   18.9970 N.3    14  ARG14      -0.1245
      2  CA        11.0910   30.3140   20.2060 C.3    14  ARG14       0.1563
      3  C         10.3330   30.8870   21.4120 C.2    14  ARG14       0.2260
      4  O          9.8830   30.1280   22.2680 O.2    14  ARG14      -0.2867
      5  CB        12.5880   30.5670   20.4260 C.3    14  ARG14       0.0307
      6  CG        13.0940   30.0280   21.7160 C.3    14  ARG14       0.0489
      7  CD        14.5030   30.5330   21.6190 C.3    14  ARG14       0.2205
      8  NE        15.3150   30.1120   22.7370 N.pl3  14  ARG14      -0.0865
      9  CZ        16.4300   29.3970   22.6110 C.cat  14  ARG14       0.5346
     10  NH1       17.1170   29.0530   23.6880 N.pl3  14  ARG14       0.1354
     11  NH2       16.8180   28.9620   21.4150 N.pl3  14  ARG14       0.1354
     12  N          8.3960   22.9210   15.5600 N.3    34  ARG34      -0.1245
     13  CA         8.1800   24.1720   14.8520 C.3    34  ARG34       0.1563
     14  C          9.3760   24.4040   13.9420 C.2    34  ARG34       0.2260
     15  O         10.3400   23.6390   13.9620 O.2    34  ARG34      -0.2867
     16  CB         8.0750   25.3240   15.8860 C.3    34  ARG34       0.0307
     17  CG         9.3470   25.4430   16.7470 C.3    34  ARG34       0.0489
     18  CD         9.3460   26.6440   17.6720 C.3    34  ARG34       0.2205
     19  NE        10.4490   26.6430   18.6380 N.pl3  34  ARG34      -0.0865
     20  CZ        11.6470   27.1680   18.4040 C.cat  34  ARG34       0.5346
     21  NH1       12.5880   27.1150   19.3540 N.pl3  34  ARG34       0.1354
     22  NH2       11.9040   27.7530   17.2320 N.pl3  34  ARG34       0.1354
     23  N         12.7710   26.1700   12.7400 N.3    36  SER36      -0.1202
     24  CA        13.8770   26.8190   13.4070 C.3    36  SER36       0.2020
     25  C         13.7500   28.3000   12.9790 C.2    36  SER36       0.2619
     26  O         13.3880   28.5890   11.8190 O.2    36  SER36      -0.2717
     27  CB        15.2090   26.2550   12.8450 C.3    36  SER36       0.2103
     28  OG        16.2780   27.1320   13.1370 O.3    36  SER36      -0.2182
     29  N         14.0540   29.2320   13.8760 N.am   37  GLU37      -0.1965
     30  CA        13.9660   30.6490   13.5280 C.3    37  GLU37       0.1733
     31  C         14.9830   31.0330   12.4640 C.2    37  GLU37       0.2617
     32  O         14.6620   31.7740   11.5130 O.2    37  GLU37      -0.2715
     33  CB        14.2240   31.5480   14.7330 C.3    37  GLU37       0.0429
     34  CG        13.0220   31.6210   15.6400 C.3    37  GLU37       0.1163
     35  CD        13.2470   32.5340   16.8180 C.2    37  GLU37       0.3649
     36  OE1       14.3300   33.1550   16.9470 O.co2  37  GLU37      -0.2457
     37  OE2       12.3160   32.6680   17.6300 O.co2  37  GLU37      -0.2457
     38  N         16.2060   30.5320   12.6070 N.am   38  THR38      -0.1937
     39  CA        17.2300   30.9420   11.6740 C.3    38  THR38       0.2028
     40  C         17.8840   29.8530   10.8140 C.2    38  THR38       0.2642
     41  O         18.6300   30.1760    9.8710 O.2    38  THR38      -0.2714
     42  CB        18.3130   31.7340   12.4390 C.3    38  THR38       0.1808
     43  OG1       18.8910   30.8850   13.4370 O.3    38  THR38      -0.2208
     44  CG2       17.7090   32.9770   13.1550 C.3    38  THR38       0.0379
     45  N         17.6660   28.5770   11.1220 N.am   39  THR39      -0.1950
     46  CA        18.2810   27.5330   10.2990 C.3    39  THR39       0.1897
     47  C         17.3230   27.0410    9.2180 C.2    39  THR39       0.2313
     48  O         16.3680   26.3210    9.5120 O.2    39  THR39      -0.2863
     49  CB        18.7660   26.3610   11.1490 C.3    39  THR39       0.1794
     50  OG1       19.6550   26.8510   12.1530 O.3    39  THR39      -0.2208
     51  CG2       19.5010   25.3280   10.2680 C.3    39  THR39       0.0378
     52  N         14.1790   22.0600   11.7980 N.3    43  TYR43      -0.1227
     53  CA        13.0390   22.1730   12.7040 C.3    43  TYR43       0.1736
     54  C         13.5390   22.2710   14.1160 C.2    43  TYR43       0.2595
     55  O         14.7100   22.0130   14.3820 O.2    43  TYR43      -0.2718
     56  CB        12.1310   20.9620   12.5940 C.3    43  TYR43       0.0548
     57  CG        11.5790   20.7940   11.2150 C.ar   43  TYR43      -0.0200
     58  CD1       12.1140   19.8430   10.3450 C.ar   43  TYR43      -0.0009
     59  CD2       10.5740   21.6330   10.7600 C.ar   43  TYR43      -0.0009
     60  CE1       11.6570   19.7360    9.0460 C.ar   43  TYR43       0.0417
     61  CE2       10.1040   21.5360    9.4720 C.ar   43  TYR43       0.0417
     62  CZ        10.6540   20.5910    8.6180 C.ar   43  TYR43       0.1957
     63  OH        10.1830   20.5160    7.3220 O.3    43  TYR43      -0.2866
     64  N         12.6420   22.6130   15.0240 N.am   44  CYS44      -0.1970
     65  CA        13.0040   22.7220   16.4120 C.3    44  CYS44       0.1712
     66  C         11.9800   21.9690   17.2320 C.2    44  CYS44       0.2296
     67  O         10.7870   22.1520   17.0070 O.2    44  CYS44      -0.2864
     68  CB        12.9470   24.0990   16.7910 C.3    44  CYS44       0.0983
     69  SG        14.0750   24.4370   18.1450 S.3    44  CYS44      -0.0798
     70  N         15.0560   23.3040   23.8710 N.3    60  HIS60      -0.1226
     71  CA        14.8660   23.2760   22.4190 C.3    60  HIS60       0.1752
     72  C         15.9570   22.4270   21.7990 C.2    60  HIS60       0.2596
     73  O         17.1090   22.5260   22.2230 O.2    60  HIS60      -0.2718
     74  CB        14.9350   24.7280   21.8560 C.3    60  HIS60       0.0759
     75  CG        13.9840   25.6780   22.5310 C.ar   60  HIS60       0.0818
     76  ND1       12.6430   25.7560   22.2100 N.ar   60  HIS60      -0.2268
     77  CD2       14.1770   26.5710   23.5290 C.ar   60  HIS60       0.1154
     78  CE1       12.0520   26.6420   22.9850 C.ar   60  HIS60       0.1986
     79  NE2       12.9620   27.1510   23.8020 N.ar   60  HIS60      -0.2212
     80  N         15.5670   21.5410   20.8820 N.am   61  TYR61      -0.1962
     81  CA        16.4900   20.6300   20.1850 C.3    61  TYR61       0.1771
     82  C         16.3160   20.7810   18.6820 C.2    61  TYR61       0.2619
     83  O         15.2050   20.7160   18.1510 O.2    61  TYR61      -0.2715
     84  CB        16.1970   19.1790   20.5680 C.3    61  TYR61       0.0574
     85  CG        16.2120   18.9990   22.0550 C.ar   61  TYR61      -0.0198
     86  CD1       15.0280   19.0440   22.7910 C.ar   61  TYR61      -0.0009
     87  CD2       17.4150   18.8080   22.7460 C.ar   61  TYR61      -0.0009
     88  CE1       15.0420   18.9300   24.1770 C.ar   61  TYR61       0.0417
     89  CE2       17.4460   18.6890   24.1480 C.ar   61  TYR61       0.0417
     90  CZ        16.2570   18.7410   24.8560 C.ar   61  TYR61       0.1957
     91  OH        16.2630   18.5840   26.2120 O.3    61  TYR61      -0.2866
     92  N         17.4170   20.9300   17.9720 N.am   62  LYS62      -0.1977
     93  CA        17.3240   21.1110   16.5400 C.3    62  LYS62       0.1596
     94  C         17.1930   19.7930   15.8350 C.2    62  LYS62       0.2287
     95  O         17.9270   18.8610   16.1170 O.2    62  LYS62      -0.2864
     96  CB        18.5600   21.8710   16.0250 C.3    62  LYS62       0.0298
     97  CG        18.3350   22.2340   14.5550 C.3    62  LYS62       0.0038
     98  CD        19.2930   23.3220   14.0950 C.3    62  LYS62       0.0206
     99  CE        18.9480   24.5710   14.8630 C.3    62  LYS62       0.1093
    100  NZ        19.9260   25.6490   14.5450 N.3    62  LYS62      -0.1314
@<TRIPOS>BOND
     1    63    62    1
     2    62    60   ar
     3    62    61   ar
     4    60    58   ar
     5    47    48    2
     6    47    46    1
     7    61    59   ar
     8    41    40    2
     9    51    49    1
    10    46    45    1
    11    46    49    1
    12    58    57   ar
    13    59    57   ar
    14    40    45   am
    15    40    39    1
    16    49    50    1
    17    57    56    1
    18    32    31    2
    19    39    42    1
    20    39    38    1
    21    52    53    1
    22    26    25    2
    23    42    44    1
    24    42    43    1
    25    31    38   am
    26    31    30    1
    27    56    53    1
    28    53    54    1
    29    23    24    1
    30    27    28    1
    31    27    24    1
    32    25    24    1
    33    25    29   am
    34    30    29    1
    35    30    33    1
    36    14    15    2
    37    14    13    1
    38    98    97    1
    39    98    99    1
    40    54    55    2
    41    54    64   am
    42   100    99    1
    43    97    96    1
    44    33    34    1
    45    13    12    1
    46    13    16    1
    47    64    65    1
    48    34    35    1
    49    94    95    2
    50    94    93    1
    51    16    17    1
    52    96    93    1
    53    65    68    1
    54    65    66    1
    55    93    92    1
    56    17    18    1
    57    68    69    1
    58    35    36   ar
    59    35    37   ar
    60    67    66    2
    61    22    20    1
    62    18    19    1
    63    92    82   am
    64    83    82    2
    65    20    19    2
    66    20    21    1
    67    82    81    1
    68     1     2    1
    69    81    84    1
    70    81    80    1
    71     2     5    1
    72     2     3    1
    73     5     6    1
    74    84    85    1
    75    80    72   am
    76     3     4    2
    77    11     9    1
    78     7     6    1
    79     7     8    1
    80    72    73    2
    81    72    71    1
    82    74    71    1
    83    74    75    1
    84    85    87   ar
    85    85    86   ar
    86    76    75   ar
    87    76    78   ar
    88    71    70    1
    89    75    77   ar
    90     9     8    2
    91     9    10    1
    92    87    89   ar
    93    86    88   ar
    94    78    79   ar
    95    77    79   ar
    96    89    90   ar
    97    88    90   ar
    98    90    91    1
