@<TRIPOS>MOLECULE
tmp/1o4sB00.pdb
 155 146 0 0 0
SMALL
GASTEIGER

@<TRIPOS>ATOM
      1  N        -17.5630  -13.9520   28.4130 N.3    45  GLY45      -0.1225
      2  CA       -16.3930  -14.4490   27.7260 C.3    45  GLY45       0.1811
      3  C        -15.1090  -14.4190   28.5390 C.2    45  GLY45       0.2280
      4  O        -14.0150  -14.4570   27.9440 O.2    45  GLY45      -0.2866
      5  N         -3.7040   -8.4200   24.4610 N.3   105  GLY105     -0.1210
      6  CA        -4.4760   -9.6410   24.3260 C.3   105  GLY105      0.1956
      7  C         -4.0960  -10.4450   23.0950 C.2   105  GLY105      0.2612
      8  O         -3.3480   -9.9900   22.1940 O.2   105  GLY105     -0.2717
      9  N         -4.5920  -11.6720   23.0610 N.am  106  ALA106     -0.1965
     10  CA        -4.6420  -12.4530   21.8330 C.3   106  ALA106      0.1728
     11  C         -5.4030  -11.7220   20.7060 C.2   106  ALA106      0.2616
     12  O         -5.1600  -11.9560   19.5390 O.2   106  ALA106     -0.2715
     13  CB        -5.3040  -13.8360   22.1060 C.3   106  ALA106      0.0334
     14  N         -6.3390  -10.8500   21.0550 N.am  107  LYS107     -0.1977
     15  CA        -7.0890  -10.1420   20.0390 C.3   107  LYS107      0.1596
     16  C         -6.1820   -9.3090   19.1080 C.2   107  LYS107      0.2287
     17  O         -6.3460   -9.3530   17.8960 O.2   107  LYS107     -0.2864
     18  CB        -8.1820   -9.2980   20.6490 C.3   107  LYS107      0.0298
     19  CG        -9.1540   -8.7950   19.6160 C.3   107  LYS107      0.0038
     20  CD       -10.2550   -7.9140   20.2090 C.3   107  LYS107      0.0206
     21  CE       -11.5390   -8.6610   20.3290 C.3   107  LYS107      0.1093
     22  NZ       -12.7530   -7.7800   20.4790 N.3   107  LYS107     -0.1314
     23  N         -4.0790  -11.5390   16.8660 N.3   110  LEU110     -0.1245
     24  CA        -4.8550  -11.9340   15.7000 C.3   110  LEU110      0.1561
     25  C         -4.8830  -10.7980   14.6590 C.2   110  LEU110      0.2260
     26  O         -4.5910  -11.0010   13.5080 O.2   110  LEU110     -0.2867
     27  CB        -6.2770  -12.3410   16.1200 C.3   110  LEU110      0.0270
     28  CG        -6.4150  -13.6760   16.9050 C.3   110  LEU110      0.0019
     29  CD1       -7.5870  -13.7370   17.9500 C.3   110  LEU110      0.0001
     30  CD2       -6.5280  -14.8880   15.9030 C.3   110  LEU110      0.0001
     31  N        -16.1590  -17.3750   16.4530 N.3   131  TRP131     -0.1241
     32  CA       -16.0530  -16.2390   17.3730 C.3   131  TRP131      0.1605
     33  C        -16.2700  -14.8870   16.6480 C.2   131  TRP131      0.2264
     34  O        -15.8760  -14.6920   15.4960 O.2   131  TRP131     -0.2867
     35  CB       -14.6920  -16.2530   18.0850 C.3   131  TRP131      0.0550
     36  CG       -14.5360  -15.1970   19.1210 C.ar  131  TRP131      0.0003
     37  CD1      -15.4110  -14.8970   20.1460 C.ar  131  TRP131      0.0946
     38  CD2      -13.4270  -14.3050   19.2740 C.ar  131  TRP131      0.0152
     39  NE1      -14.9050  -13.8680   20.9050 N.ar  131  TRP131     -0.2442
     40  CE2      -13.6860  -13.4920   20.4020 C.ar  131  TRP131      0.0810
     41  CE3      -12.2320  -14.1060   18.5750 C.ar  131  TRP131      0.0012
     42  CZ2      -12.7920  -12.4970   20.8440 C.ar  131  TRP131      0.0191
     43  CZ3      -11.3230  -13.0850   19.0320 C.ar  131  TRP131      0.0001
     44  CH2      -11.6160  -12.3190   20.1490 C.ar  131  TRP131      0.0015
     45  N        -13.1860  -12.3340   14.6030 N.3   134  TYR134     -0.1241
     46  CA       -12.2910  -12.7220   13.5320 C.3   134  TYR134      0.1605
     47  C        -12.6180  -12.0180   12.2020 C.2   134  TYR134      0.2264
     48  O        -11.7180  -11.5140   11.4950 O.2   134  TYR134     -0.2867
     49  CB       -12.3600  -14.2390   13.3190 C.3   134  TYR134      0.0534
     50  CG       -11.8370  -15.1240   14.4300 C.ar  134  TYR134     -0.0201
     51  CD1      -10.6870  -14.7940   15.1550 C.ar  134  TYR134     -0.0009
     52  CD2      -12.4710  -16.3330   14.7220 C.ar  134  TYR134     -0.0009
     53  CE1      -10.2040  -15.6430   16.1290 C.ar  134  TYR134      0.0417
     54  CE2      -12.0050  -17.1750   15.6930 C.ar  134  TYR134      0.0417
     55  CZ       -10.8610  -16.8470   16.3870 C.ar  134  TYR134      0.1957
     56  OH       -10.3950  -17.7160   17.3510 O.3   134  TYR134     -0.2866
     57  N         -9.4190  -22.3770   15.7350 N.3   177  ASN177     -0.1240
     58  CA        -9.6470  -21.9980   17.1080 C.3   177  ASN177      0.1653
     59  C        -10.0740  -23.2450   17.8960 C.2   177  ASN177      0.2266
     60  O        -11.2750  -23.5900   17.9850 O.2   177  ASN177     -0.2867
     61  CB       -10.7460  -20.9540   17.1650 C.3   177  ASN177      0.1155
     62  CG       -11.1480  -20.5890   18.5970 C.2   177  ASN177      0.2627
     63  OD1      -12.3230  -20.3140   18.8510 O.2   177  ASN177     -0.2716
     64  ND2      -10.1720  -20.5200   19.5180 N.am  177  ASN177     -0.0877
     65  N        -14.4330  -21.4980   20.7260 N.3   181  ASN181     -0.1240
     66  CA       -15.4980  -20.6250   21.1640 C.3   181  ASN181      0.1653
     67  C        -16.3930  -20.4560   19.9090 C.2   181  ASN181      0.2266
     68  O        -15.9020  -19.9090   18.9050 O.2   181  ASN181     -0.2867
     69  CB       -14.8820  -19.3000   21.6190 C.3   181  ASN181      0.1155
     70  CG       -15.8990  -18.3030   22.1010 C.2   181  ASN181      0.2627
     71  OD1      -17.0960  -18.5210   22.0070 O.2   181  ASN181     -0.2716
     72  ND2      -15.4180  -17.1930   22.6530 N.am  181  ASN181     -0.0877
     73  N         -5.4860  -20.1000   17.0860 N.3   209  ASP209     -0.1239
     74  CA        -5.8810  -19.3730   18.2760 C.3   209  ASP209      0.1674
     75  C         -6.1540  -20.3860   19.3700 C.2   209  ASP209      0.2266
     76  O         -7.2580  -20.9500   19.4570 O.2   209  ASP209     -0.2867
     77  CB        -7.1420  -18.5710   17.9640 C.3   209  ASP209      0.1410
     78  CG        -7.6450  -17.7510   19.1460 C.2   209  ASP209      0.3668
     79  OD1       -7.0890  -17.8790   20.2790 O.co2 209  ASP209     -0.2456
     80  OD2       -8.6250  -16.9660   19.0080 O.co2 209  ASP209     -0.2456
     81  N         -6.0400  -19.9180   22.8330 N.3   211  VAL211     -0.1231
     82  CA        -6.1180  -19.2120   24.1100 C.3   211  VAL211      0.1692
     83  C         -6.7780  -20.0180   25.2320 C.2   211  VAL211      0.2592
     84  O         -6.5770  -19.7100   26.4130 O.2   211  VAL211     -0.2718
     85  CB        -6.8670  -17.8720   24.0500 C.3   211  VAL211      0.0266
     86  CG1       -6.0110  -16.8430   23.4650 C.3   211  VAL211      0.0020
     87  CG2       -8.2100  -17.9910   23.3290 C.3   211  VAL211      0.0020
     88  N         -7.5590  -21.0410   24.8530 N.am  212  TYR212     -0.1976
     89  CA        -8.2840  -21.8740   25.8160 C.3   212  TYR212      0.1639
     90  C         -7.5710  -23.1780   26.0510 C.2   212  TYR212      0.2290
     91  O         -8.1250  -24.0610   26.6600 O.2   212  TYR212     -0.2864
     92  CB        -9.7090  -22.1390   25.3270 C.3   212  TYR212      0.0560
     93  CG       -10.5830  -20.9120   25.2930 C.ar  212  TYR212     -0.0198
     94  CD1      -11.1290  -20.4030   26.4570 C.ar  212  TYR212     -0.0009
     95  CD2      -10.9000  -20.2860   24.1060 C.ar  212  TYR212     -0.0009
     96  CE1      -11.9470  -19.3110   26.4400 C.ar  212  TYR212      0.0417
     97  CE2      -11.7250  -19.1650   24.0810 C.ar  212  TYR212      0.0417
     98  CZ       -12.2340  -18.6840   25.2580 C.ar  212  TYR212      0.1957
     99  OH       -13.0410  -17.5850   25.2810 O.3   212  TYR212     -0.2866
    100  N         -2.2570  -16.3640   25.0930 N.3   239  GLY239     -0.1225
    101  CA        -2.0900  -15.2740   26.0350 C.3   239  GLY239      0.1811
    102  C         -2.5720  -15.6670   27.4150 C.2   239  GLY239      0.2280
    103  O         -2.7890  -16.8520   27.6830 O.2   239  GLY239     -0.2866
    104  N         -5.2190  -14.2620   29.2100 N.3   241  SER241     -0.1202
    105  CA        -6.5710  -13.8310   29.5420 C.3   241  SER241      0.2020
    106  C         -7.3870  -14.9640   30.1460 C.2   241  SER241      0.2618
    107  O         -8.0190  -14.7910   31.1620 O.2   241  SER241     -0.2717
    108  CB        -7.2800  -13.3100   28.3020 C.3   241  SER241      0.2103
    109  OG        -6.9330  -11.9660   28.0350 O.3   241  SER241     -0.2182
    110  N         -7.3850  -16.1120   29.4940 N.am  242  LYS242     -0.1979
    111  CA        -8.2460  -17.2130   29.9140 C.3   242  LYS242      0.1596
    112  C         -7.5420  -18.1170   30.8840 C.2   242  LYS242      0.2287
    113  O         -8.0980  -18.4730   31.9160 O.2   242  LYS242     -0.2864
    114  CB        -8.7940  -17.9850   28.6720 C.3   242  LYS242      0.0298
    115  CG        -9.4350  -17.0530   27.5580 C.3   242  LYS242      0.0038
    116  CD       -10.5320  -16.1490   28.1020 C.3   242  LYS242      0.0206
    117  CE       -11.0740  -15.0660   27.1150 C.3   242  LYS242      0.1093
    118  NZ       -10.8150  -15.4010   25.7210 N.3   242  LYS242     -0.1314
    119  N         -8.0020  -11.1880   31.9080 N.3   247  THR247     -0.1218
    120  CA        -8.6030  -10.5600   30.7190 C.3   247  THR247      0.1862
    121  C         -8.4050   -9.0510   30.6630 C.2   247  THR247      0.2287
    122  O         -8.0980   -8.5350   29.5960 O.2   247  THR247     -0.2866
    123  CB       -10.1270  -10.8440   30.6140 C.3   247  THR247      0.1770
    124  OG1      -10.7020  -10.6250   31.8870 O.3   247  THR247     -0.2211
    125  CG2      -10.4330  -12.2780   30.2160 C.3   247  THR247      0.0375
    126  N         -4.8740   -7.3210   29.2860 N.3   250  ARG250     -0.1231
    127  CA        -4.6220   -7.2930   27.8430 C.3   250  ARG250      0.1694
    128  C         -3.1960   -7.6860   27.4980 C.2   250  ARG250      0.2591
    129  O         -2.4510   -6.8410   27.0050 O.2   250  ARG250     -0.2718
    130  CB        -4.9640   -5.9220   27.2130 C.3   250  ARG250      0.0321
    131  CG        -6.1780   -5.2010   27.8130 C.3   250  ARG250      0.0489
    132  CD        -7.5260   -5.8730   27.6340 C.3   250  ARG250      0.2205
    133  NE        -7.7540   -6.3070   26.2630 N.pl3 250  ARG250     -0.0865
    134  CZ        -7.7910   -7.5630   25.8240 C.cat 250  ARG250      0.5346
    135  NH1       -7.6350   -8.5870   26.6460 N.pl3 250  ARG250      0.1354
    136  NH2       -7.9860   -7.7970   24.5310 N.pl3 250  ARG250      0.1354
    137  N         -2.8190   -8.9350   27.7930 N.am  251  VAL251     -0.1980
    138  CA        -1.5210   -9.4830   27.4300 C.3   251  VAL251      0.1595
    139  C         -1.7130  -10.8070   26.7090 C.2   251  VAL251      0.2287
    140  O         -2.2440  -11.7690   27.2670 O.2   251  VAL251     -0.2864
    141  CB        -0.6420   -9.8110   28.6300 C.3   251  VAL251      0.0276
    142  CG1        0.7920  -10.1410   28.1620 C.3   251  VAL251      0.0022
    143  CG2       -0.6780   -8.7300   29.6200 C.3   251  VAL251      0.0022
    144  N        -17.7150  -22.7750   27.4300 N.3   324  TYR324     -0.1241
    145  CA       -18.9800  -22.6350   26.7060 C.3   324  TYR324      0.1605
    146  C        -19.6560  -23.9820   26.3980 C.2   324  TYR324      0.2264
    147  O        -19.0160  -25.0490   26.2530 O.2   324  TYR324     -0.2867
    148  CB       -18.7620  -21.8870   25.3990 C.3   324  TYR324      0.0534
    149  CG       -17.8730  -20.7050   25.5710 C.ar  324  TYR324     -0.0201
    150  CD1      -18.3380  -19.5720   26.2170 C.ar  324  TYR324     -0.0009
    151  CD2      -16.5400  -20.7470   25.1700 C.ar  324  TYR324     -0.0009
    152  CE1      -17.5210  -18.4970   26.4210 C.ar  324  TYR324      0.0417
    153  CE2      -15.7130  -19.6690   25.3600 C.ar  324  TYR324      0.0417
    154  CZ       -16.2130  -18.5330   26.0010 C.ar  324  TYR324      0.1957
    155  OH       -15.4360  -17.4000   26.1880 O.3   324  TYR324     -0.2866
@<TRIPOS>BOND
     1    48    47    2
     2    47    46    1
     3    49    46    1
     4    49    50    1
     5    26    25    2
     6    46    45    1
     7    50    52   ar
     8    50    51   ar
     9    25    24    1
    10    52    54   ar
    11    51    53   ar
    12    34    33    2
    13    54    55   ar
    14    24    27    1
    15    24    23    1
    16    57    58    1
    17    30    28    1
    18    27    28    1
    19    53    55   ar
    20    55    56    1
    21    31    32    1
    22    33    32    1
    23    28    29    1
    24    73    74    1
    25    58    61    1
    26    58    59    1
    27    61    62    1
    28    32    35    1
    29    17    16    2
    30    59    60    2
    31    77    74    1
    32    77    78    1
    33    35    36    1
    34    74    75    1
    35    41    43   ar
    36    41    38   ar
    37    62    63    2
    38    62    64   am
    39    68    67    2
    40    80    78   ar
    41    43    44   ar
    42    16    15    1
    43    36    38   ar
    44    36    37   ar
    45    78    79   ar
    46    38    40   ar
    47    75    76    2
    48    12    11    2
    49    19    20    1
    50    19    18    1
    51    67    66    1
    52    15    18    1
    53    15    14    1
    54    37    39   ar
    55    44    42   ar
    56    20    21    1
    57    21    22    1
    58    40    42   ar
    59    40    39   ar
    60    11    14   am
    61    11    10    1
    62    65    66    1
    63    66    69    1
    64    69    70    1
    65    10    13    1
    66    10     9    1
    67    71    70    2
    68    70    72   am
    69     8     7    2
    70    81    82    1
    71     9     7   am
    72     7     6    1
    73    87    85    1
    74    86    85    1
    75    85    82    1
    76    97    95   ar
    77    97    98   ar
    78    95    93   ar
    79    82    83    1
    80     6     5    1
    81   136   134    1
    82    88    83   am
    83    88    89    1
    84   100   101    1
    85   151   153   ar
    86   151   149   ar
    87    83    84    2
    88    98    99    1
    89    98    96   ar
    90    93    92    1
    91    93    94   ar
    92    92    89    1
    93   153   154   ar
    94   148   149    1
    95   148   145    1
    96   149   150   ar
    97   118   117    1
    98    89    90    1
    99   134   133    2
   100   134   135    1
   101   154   155    1
   102   154   152   ar
   103   101   102    1
   104    90    91    2
   105   150   152   ar
   106   147   146    2
   107   133   132    1
   108   146   145    1
   109    96    94   ar
   110   145   144    1
   111   139   140    2
   112   139   138    1
   113   129   128    2
   114   117   116    1
   115   130   131    1
   116   130   127    1
   117   102   103    2
   118   138   137    1
   119   138   141    1
   120   128   137   am
   121   128   127    1
   122   115   116    1
   123   115   114    1
   124   132   131    1
   125     2     1    1
   126     2     3    1
   127   127   126    1
   128     4     3    2
   129   109   108    1
   130   142   141    1
   131   108   105    1
   132   141   143    1
   133   114   111    1
   134   104   105    1
   135   110   111    1
   136   110   106   am
   137   105   106    1
   138   122   121    2
   139   111   112    1
   140   106   107    2
   141   125   123    1
   142   123   120    1
   143   123   124    1
   144   121   120    1
   145   120   119    1
   146   112   113    2
