@<TRIPOS>MOLECULE
tmp/1o4zB00.pdb
 163 162 0 0 0
SMALL
GASTEIGER

@<TRIPOS>ATOM
      1  N         -4.1690   11.1980  -10.0690 N.3    48  TYR48      -0.1241
      2  CA        -4.4800   11.2850   -8.6390 C.3    48  TYR48       0.1605
      3  C         -4.3030    9.9160   -7.9430 C.2    48  TYR48       0.2264
      4  O         -4.0110    8.9140   -8.6020 O.2    48  TYR48      -0.2867
      5  CB        -5.9150   11.8040   -8.5210 C.3    48  TYR48       0.0534
      6  CG        -6.4250   12.0810   -7.1400 C.ar   48  TYR48      -0.0201
      7  CD1       -5.7940   13.0030   -6.3090 C.ar   48  TYR48      -0.0009
      8  CD2       -7.5730   11.4530   -6.6720 C.ar   48  TYR48      -0.0009
      9  CE1       -6.2840   13.2590   -5.0220 C.ar   48  TYR48       0.0417
     10  CE2       -8.0650   11.6980   -5.3960 C.ar   48  TYR48       0.0417
     11  CZ        -7.4220   12.6050   -4.5830 C.ar   48  TYR48       0.1957
     12  OH        -7.9190   12.8470   -3.3290 O.3    48  TYR48      -0.2866
     13  N        -10.8200    9.2210   -8.9610 N.3    52  TRP52      -0.1241
     14  CA       -11.5440   10.4900   -8.9330 C.3    52  TRP52       0.1605
     15  C        -10.8300   11.5600   -9.7460 C.2    52  TRP52       0.2264
     16  O         -9.6130   11.7450   -9.6330 O.2    52  TRP52      -0.2867
     17  CB       -11.7350   10.9470   -7.4980 C.3    52  TRP52       0.0550
     18  CG       -12.5570   12.1750   -7.3120 C.ar   52  TRP52       0.0003
     19  CD1      -13.8670   12.3540   -7.6570 C.ar   52  TRP52       0.0946
     20  CD2      -12.1370   13.3900   -6.6880 C.ar   52  TRP52       0.0152
     21  NE1      -14.2830   13.6140   -7.2950 N.ar   52  TRP52      -0.2442
     22  CE2      -13.2470   14.2690   -6.6880 C.ar   52  TRP52       0.0810
     23  CE3      -10.9270   13.8340   -6.1280 C.ar   52  TRP52       0.0012
     24  CZ2      -13.1880   15.5550   -6.1530 C.ar   52  TRP52       0.0191
     25  CZ3      -10.8640   15.1260   -5.5970 C.ar   52  TRP52       0.0001
     26  CH2      -11.9960   15.9690   -5.6120 C.ar   52  TRP52       0.0015
     27  N        -12.0020   18.0750   -8.2950 N.3    55  PRO55      -0.2116
     28  CA       -13.1430   18.8870   -7.8780 C.3    55  PRO55       0.1372
     29  C        -13.5730   19.8980   -8.9290 C.2    55  PRO55       0.2244
     30  O        -12.8770   20.0630   -9.9210 O.2    55  PRO55      -0.2868
     31  CB       -12.5850   19.6430   -6.6670 C.3    55  PRO55       0.0268
     32  CG       -11.1710   19.8730   -7.0270 C.3    55  PRO55       0.0207
     33  CD       -10.7320   18.6530   -7.8120 C.3    55  PRO55       0.0892
     34  N         -9.0000   15.7600  -14.3020 N.3    60  TRP60      -0.1241
     35  CA        -7.5990   15.3830  -14.4010 C.3    60  TRP60       0.1605
     36  C         -7.3930   14.4050  -15.5510 C.2    60  TRP60       0.2264
     37  O         -8.2550   13.5890  -15.8640 O.2    60  TRP60      -0.2867
     38  CB        -7.0840   14.7620  -13.1050 C.3    60  TRP60       0.0550
     39  CG        -6.8850   15.7360  -11.9990 C.ar   60  TRP60       0.0003
     40  CD1       -6.3000   16.9640  -12.0840 C.ar   60  TRP60       0.0946
     41  CD2       -7.2630   15.5670  -10.6330 C.ar   60  TRP60       0.0152
     42  NE1       -6.2850   17.5640  -10.8480 N.ar   60  TRP60      -0.2442
     43  CE2       -6.8720   16.7290   -9.9390 C.ar   60  TRP60       0.0810
     44  CE3       -7.8710   14.5380   -9.9110 C.ar   60  TRP60       0.0012
     45  CZ2       -7.0820   16.8950   -8.5650 C.ar   60  TRP60       0.0191
     46  CZ3       -8.1010   14.7130   -8.5440 C.ar   60  TRP60       0.0001
     47  CH2       -7.7010   15.8800   -7.8910 C.ar   60  TRP60       0.0015
     48  N         -0.5650   23.2370   -6.7200 N.3   116  ASP116     -0.1239
     49  CA        -0.5280   22.4480   -5.4900 C.3   116  ASP116      0.1674
     50  C          0.6200   21.4550   -5.4400 C.2   116  ASP116      0.2266
     51  O          0.8880   20.7520   -6.4170 O.2   116  ASP116     -0.2867
     52  CB        -1.8150   21.6330   -5.2760 C.3   116  ASP116      0.1410
     53  CG        -3.0720   22.4490   -5.4460 C.2   116  ASP116      0.3668
     54  OD1       -3.1510   23.5360   -4.8300 O.co2 116  ASP116     -0.2456
     55  OD2       -4.0330   22.0580   -6.1690 O.co2 116  ASP116     -0.2456
     56  N          1.1800   18.7170   -2.3030 N.3   118  TRP118     -0.1241
     57  CA         0.5330   18.3090   -1.0730 C.3   118  TRP118      0.1605
     58  C          0.7030   16.8310   -0.7890 C.2   118  TRP118      0.2264
     59  O          1.2600   16.0890   -1.6050 O.2   118  TRP118     -0.2867
     60  CB        -0.9340   18.7340   -1.0620 C.3   118  TRP118      0.0550
     61  CG        -1.7580   18.2920   -2.2170 C.ar  118  TRP118      0.0003
     62  CD1       -1.5350   18.5380   -3.5380 C.ar  118  TRP118      0.0946
     63  CD2       -2.9570   17.5280   -2.1530 C.ar  118  TRP118      0.0152
     64  NE1       -2.5350   17.9870   -4.3030 N.ar  118  TRP118     -0.2442
     65  CE2       -3.4160   17.3510   -3.4780 C.ar  118  TRP118      0.0810
     66  CE3       -3.6900   16.9620   -1.1100 C.ar  118  TRP118      0.0012
     67  CZ2       -4.5730   16.6400   -3.7800 C.ar  118  TRP118      0.0191
     68  CZ3       -4.8250   16.2710   -1.4000 C.ar  118  TRP118      0.0001
     69  CH2       -5.2730   16.1180   -2.7290 C.ar  118  TRP118      0.0015
     70  N         -4.2750   15.2000    5.5590 N.3   127  GLU127     -0.1245
     71  CA        -3.7620   15.9660    4.4300 C.3   127  GLU127      0.1567
     72  C         -2.8210   17.0700    4.9260 C.2   127  GLU127      0.2260
     73  O         -3.1090   17.7320    5.9290 O.2   127  GLU127     -0.2867
     74  CB        -4.9320   16.5920    3.6510 C.3   127  GLU127      0.0388
     75  CG        -4.5160   17.6610    2.6440 C.3   127  GLU127      0.1160
     76  CD        -5.6620   18.2240    1.8090 C.2   127  GLU127      0.3649
     77  OE1       -6.7830   17.6820    1.8360 O.co2 127  GLU127     -0.2457
     78  OE2       -5.4290   19.2380    1.1070 O.co2 127  GLU127     -0.2457
     79  N         -0.8390   20.3730    3.2220 N.3   129  ASP129     -0.1239
     80  CA        -0.6390   21.2250    2.0570 C.3   129  ASP129      0.1674
     81  C          0.6420   22.0460    2.1940 C.2   129  ASP129      0.2266
     82  O          0.7110   22.9760    2.9920 O.2   129  ASP129     -0.2867
     83  CB        -1.8500   22.1280    1.8780 C.3   129  ASP129      0.1410
     84  CG        -3.1470   21.3430    1.8150 C.2   129  ASP129      0.3668
     85  OD1       -3.1960   20.3220    1.0840 O.co2 129  ASP129     -0.2456
     86  OD2       -4.1630   21.6540    2.4740 O.co2 129  ASP129     -0.2456
     87  N          2.1830   23.5720   -0.5290 N.3   131  LEU131     -0.1231
     88  CA         1.9220   24.7200   -1.3970 C.3   131  LEU131      0.1693
     89  C          0.5230   24.6220   -1.9960 C.2   131  LEU131      0.2591
     90  O          0.2180   23.6640   -2.7270 O.2   131  LEU131     -0.2718
     91  CB         2.9260   24.7640   -2.5400 C.3   131  LEU131      0.0284
     92  CG         2.6220   25.6980   -3.7230 C.3   131  LEU131      0.0019
     93  CD1        2.8030   27.1450   -3.2790 C.3   131  LEU131      0.0001
     94  CD2        3.5420   25.3850   -4.8850 C.3   131  LEU131      0.0001
     95  N         -0.3120   25.6130   -1.7000 N.am  132  GLU132     -0.1979
     96  CA        -1.5890   25.7840   -2.3890 C.3   132  GLU132      0.1602
     97  C         -1.7110   27.2690   -2.6910 C.2   132  GLU132      0.2287
     98  O         -1.8140   28.0720   -1.7750 O.2   132  GLU132     -0.2864
     99  CB        -2.7600   25.2840   -1.5240 C.3   132  GLU132      0.0415
    100  CG        -4.1480   25.6260   -2.0680 C.3   132  GLU132      0.1163
    101  CD        -5.2820   24.9140   -1.3430 C.2   132  GLU132      0.3649
    102  OE1       -5.3620   25.0000   -0.0910 O.co2 132  GLU132     -0.2457
    103  OE2       -6.1180   24.2760   -2.0320 O.co2 132  GLU132     -0.2457
    104  N         -5.3690   19.3720    6.6220 N.3   158  HIS158     -0.1241
    105  CA        -6.7600   18.9880    6.9140 C.3   158  HIS158      0.1621
    106  C         -6.8010   17.6660    7.6640 C.2   158  HIS158      0.2264
    107  O         -5.9670   16.7750    7.4420 O.2   158  HIS158     -0.2867
    108  CB        -7.6330   18.8420    5.6350 C.3   158  HIS158      0.0745
    109  CG        -7.7890   20.1090    4.8560 C.ar  158  HIS158      0.0817
    110  ND1       -8.5010   21.1860    5.3220 N.ar  158  HIS158     -0.2268
    111  CD2       -7.3150   20.4770    3.6410 C.ar  158  HIS158      0.1154
    112  CE1       -8.4520   22.1660    4.4340 C.ar  158  HIS158      0.1986
    113  NE2       -7.7330   21.7640    3.4090 N.ar  158  HIS158     -0.2212
    114  N        -10.1530   14.9560    8.3090 N.3   160  PHE160     -0.1241
    115  CA       -11.5120   14.7330    7.8480 C.3   160  PHE160      0.1605
    116  C        -12.1340   13.5570    8.6000 C.2   160  PHE160      0.2264
    117  O        -11.4560   12.5790    8.9090 O.2   160  PHE160     -0.2867
    118  CB       -11.5330   14.3510    6.3570 C.3   160  PHE160      0.0534
    119  CG       -10.9740   15.4010    5.4190 C.ar  160  PHE160     -0.0203
    120  CD1      -11.7750   16.4380    4.9460 C.ar  160  PHE160     -0.0042
    121  CD2       -9.6620   15.3260    4.9780 C.ar  160  PHE160     -0.0042
    122  CE1      -11.2580   17.4040    4.0650 C.ar  160  PHE160     -0.0003
    123  CE2       -9.1370   16.2780    4.1070 C.ar  160  PHE160     -0.0003
    124  CZ        -9.9380   17.3220    3.6440 C.ar  160  PHE160     -0.0000
    125  N         -5.6770   22.5460   -9.8100 N.3   251  GLU251     -0.1245
    126  CA        -7.0870   22.2940   -9.5330 C.3   251  GLU251      0.1567
    127  C         -7.9510   23.5350   -9.7440 C.2   251  GLU251      0.2260
    128  O         -7.5810   24.6380   -9.3610 O.2   251  GLU251     -0.2867
    129  CB        -7.2720   21.8270   -8.0850 C.3   251  GLU251      0.0388
    130  CG        -6.8060   20.4200   -7.7950 C.3   251  GLU251      0.1160
    131  CD        -6.8540   20.0960   -6.3130 C.2   251  GLU251      0.3649
    132  OE1       -7.5330   20.8410   -5.5700 O.co2 251  GLU251     -0.2457
    133  OE2       -6.2050   19.1020   -5.8930 O.co2 251  GLU251     -0.2457
    134  N        -11.1710   24.6720   -8.0350 N.3   253  GLN253     -0.1231
    135  CA       -11.8460   24.3060   -6.7960 C.3   253  GLN253      0.1698
    136  C        -13.2410   24.9420   -6.7950 C.2   253  GLN253      0.2593
    137  O        -13.4400   26.0520   -7.2960 O.2   253  GLN253     -0.2718
    138  CB       -10.9970   24.7210   -5.5850 C.3   253  GLN253      0.0381
    139  CG        -9.7100   23.8940   -5.4660 C.3   253  GLN253      0.0905
    140  CD        -8.6280   24.4530   -4.5290 C.2   253  GLN253      0.2608
    141  OE1       -7.5410   23.8540   -4.4220 O.2   253  GLN253     -0.2717
    142  NE2       -8.8970   25.5820   -3.8740 N.am  253  GLN253     -0.0878
    143  N        -14.2020   24.2020   -6.2600 N.am  254  THR254     -0.1939
    144  CA       -15.6090   24.5890   -6.2360 C.3   254  THR254      0.2028
    145  C        -15.8720   25.9390   -5.5860 C.2   254  THR254      0.2642
    146  O        -16.7320   26.6710   -6.0320 O.2   254  THR254     -0.2714
    147  CB       -16.4200   23.5310   -5.4560 C.3   254  THR254      0.1808
    148  OG1      -16.1390   22.2270   -5.9590 O.3   254  THR254     -0.2208
    149  CG2      -17.9030   23.7110   -5.6660 C.3   254  THR254      0.0379
    150  N        -15.1770   26.2460   -4.5000 N.am  255  TRP255     -0.1973
    151  CA       -15.3620   27.5340   -3.8450 C.3   255  TRP255      0.1640
    152  C        -14.9450   28.7340   -4.7440 C.2   255  TRP255      0.2290
    153  O        -15.2500   29.8870   -4.4290 O.2   255  TRP255     -0.2864
    154  CB       -14.6430   27.5580   -2.4920 C.3   255  TRP255      0.0576
    155  CG       -13.1820   27.7460   -2.5700 C.ar  255  TRP255      0.0006
    156  CD1      -12.2570   26.8380   -2.9950 C.ar  255  TRP255      0.0946
    157  CD2      -12.4510   28.9200   -2.2080 C.ar  255  TRP255      0.0152
    158  NE1      -10.9970   27.3810   -2.9280 N.ar  255  TRP255     -0.2442
    159  CE2      -11.0870   28.6550   -2.4390 C.ar  255  TRP255      0.0810
    160  CE3      -12.8130   30.1730   -1.7050 C.ar  255  TRP255      0.0012
    161  CZ2      -10.0880   29.5890   -2.1900 C.ar  255  TRP255      0.0191
    162  CZ3      -11.8290   31.0960   -1.4560 C.ar  255  TRP255      0.0001
    163  CH2      -10.4750   30.8060   -1.7060 C.ar  255  TRP255      0.0015
@<TRIPOS>BOND
     1    37    36    2
     2    36    35    1
     3    35    34    1
     4    35    38    1
     5    38    39    1
     6    40    39   ar
     7    40    42   ar
     8    39    41   ar
     9    42    43   ar
    10    41    43   ar
    11    41    44   ar
    12     1     2    1
    13    43    45   ar
    14    30    29    2
    15    44    46   ar
    16   125   126    1
    17    15    16    2
    18    15    14    1
    19   127   126    1
    20   127   128    2
    21   126   129    1
    22    13    14    1
    23    14    17    1
    24    29    28    1
    25     2     5    1
    26     2     3    1
    27     4     3    2
    28    45    47   ar
    29    46    47   ar
    30     5     6    1
    31    27    28    1
    32    27    33    1
    33   129   130    1
    34   134   135    1
    35    28    31    1
    36    33    32    1
    37   130   131    1
    38    19    18   ar
    39    19    21   ar
    40    17    18    1
    41    18    20   ar
    42   137   136    2
    43    21    22   ar
    44     6     8   ar
    45     6     7   ar
    46    32    31    1
    47   135   136    1
    48   135   138    1
    49   136   143   am
    50    48    49    1
    51    22    20   ar
    52    22    24   ar
    53    20    23   ar
    54     8    10   ar
    55    51    50    2
    56   131   133   ar
    57   131   132   ar
    58     7     9   ar
    59   143   144    1
    60   144   145    1
    61   144   147    1
    62    55    53   ar
    63    24    26   ar
    64    23    25   ar
    65   146   145    2
    66   148   147    1
    67   149   147    1
    68    26    25   ar
    69   145   150   am
    70   138   139    1
    71    49    50    1
    72    49    52    1
    73   139   140    1
    74    53    52    1
    75    53    54   ar
    76    10    11   ar
    77     9    11   ar
    78    94    92    1
    79   152   153    2
    80   152   151    1
    81    11    12    1
    82   140   141    2
    83   140   142   am
    84   150   151    1
    85    64    62   ar
    86    64    65   ar
    87   151   154    1
    88    67    65   ar
    89    67    69   ar
    90    92    93    1
    91    92    91    1
    92    62    61   ar
    93    65    63   ar
    94   156   158   ar
    95   156   155   ar
    96   158   159   ar
    97    69    68   ar
    98    90    89    2
    99    97    96    1
   100    97    98    2
   101   155   154    1
   102   155   157   ar
   103    91    88    1
   104   159   157   ar
   105   159   161   ar
   106    96    95    1
   107    96    99    1
   108    56    57    1
   109    61    63   ar
   110    61    60    1
   111   157   160   ar
   112   161   163   ar
   113    63    66   ar
   114   100    99    1
   115   100   101    1
   116   103   101   ar
   117    89    95   am
   118    89    88    1
   119   163   162   ar
   120   160   162   ar
   121    59    58    2
   122    68    66   ar
   123    88    87    1
   124   101   102   ar
   125    57    60    1
   126    57    58    1
   127    85    84   ar
   128    78    76   ar
   129    76    77   ar
   130    76    75    1
   131    84    83    1
   132    84    86   ar
   133    83    80    1
   134    80    81    1
   135    80    79    1
   136    81    82    2
   137    75    74    1
   138   113   111   ar
   139   113   112   ar
   140   111   109   ar
   141   124   122   ar
   142   124   123   ar
   143    74    71    1
   144   122   120   ar
   145   123   121   ar
   146    71    72    1
   147    71    70    1
   148   112   110   ar
   149   109   110   ar
   150   109   108    1
   151    72    73    2
   152   120   119   ar
   153   121   119   ar
   154   119   118    1
   155   108   105    1
   156   118   115    1
   157   104   105    1
   158   105   106    1
   159   107   106    2
   160   115   114    1
   161   115   116    1
   162   116   117    2
