@<TRIPOS>MOLECULE
tmp/1o51A00.pdb
 96 94 0 0 0
SMALL
GASTEIGER

@<TRIPOS>ATOM
      1  N         43.5020    9.2780    5.2270 N.3     8  TYR8       -0.1227
      2  CA        42.1860    9.3590    4.6410 C.3     8  TYR8        0.1736
      3  C         41.3340   10.3520    5.4010 C.2     8  TYR8        0.2595
      4  O         41.2260   10.2900    6.6110 O.2     8  TYR8       -0.2718
      5  CB        41.4810    8.0450    4.7290 C.3     8  TYR8        0.0548
      6  CG        42.1340    6.8960    4.0650 C.ar    8  TYR8       -0.0200
      7  CD1       43.2580    6.3070    4.6150 C.ar    8  TYR8       -0.0009
      8  CD2       41.5870    6.3280    2.9250 C.ar    8  TYR8       -0.0009
      9  CE1       43.8610    5.2350    4.0300 C.ar    8  TYR8        0.0417
     10  CE2       42.1680    5.2270    2.3390 C.ar    8  TYR8        0.0417
     11  CZ        43.3180    4.6800    2.8940 C.ar    8  TYR8        0.1957
     12  OH        43.9180    3.5600    2.3330 O.3     8  TYR8       -0.2866
     13  N         40.6890   11.2540    4.6850 N.am    9  LEU9       -0.1966
     14  CA        39.8270   12.2150    5.3180 C.3     9  LEU9        0.1728
     15  C         38.6800   12.5570    4.3510 C.2     9  LEU9        0.2616
     16  O         38.6700   12.0690    3.2430 O.2     9  LEU9       -0.2715
     17  CB        40.6680   13.4250    5.7440 C.3     9  LEU9        0.0311
     18  CG        41.2990   14.3810    4.7240 C.3     9  LEU9        0.0022
     19  CD1       41.6460   15.6570    5.4150 C.3     9  LEU9        0.0001
     20  CD2       42.5380   13.8800    4.1490 C.3     9  LEU9        0.0001
     21  N         37.6870   13.3280    4.7690 N.am   10  GLY10      -0.1955
     22  CA        36.6710   13.8100    3.8420 C.3    10  GLY10       0.1869
     23  C         37.0370   15.1330    3.1650 C.2    10  GLY10       0.2309
     24  O         37.6880   16.0320    3.7570 O.2    10  GLY10      -0.2863
     25  N         35.9400   18.1890    5.2200 N.3    13  ASP13      -0.1239
     26  CA        36.6850   18.4960    6.4420 C.3    13  ASP13       0.1674
     27  C         37.4210   19.8270    6.3120 C.2    13  ASP13       0.2266
     28  O         37.9760   20.1320    5.2680 O.2    13  ASP13      -0.2867
     29  CB        37.6850   17.3740    6.7790 C.3    13  ASP13       0.1410
     30  CG        37.0120   16.1180    7.3420 C.2    13  ASP13       0.3668
     31  OD1       35.9890   16.2820    8.0040 O.co2  13  ASP13      -0.2456
     32  OD2       37.4350   14.9410    7.2310 O.co2  13  ASP13      -0.2456
     33  N         33.0140    6.1810   -0.1430 N.3    42  GLY42      -0.1210
     34  CA        33.7000    5.7910    1.0960 C.3    42  GLY42       0.1956
     35  C         32.8240    5.8640    2.3320 C.2    42  GLY42       0.2612
     36  O         31.8100    6.5000    2.3060 O.2    42  GLY42      -0.2717
     37  N         33.2000    5.1710    3.3830 N.am   43  PHE43      -0.1962
     38  CA        32.6650    5.4310    4.7140 C.3    43  PHE43       0.1771
     39  C         33.7200    5.0770    5.7840 C.2    43  PHE43       0.2620
     40  O         34.6740    4.3190    5.5280 O.2    43  PHE43      -0.2715
     41  CB        31.3680    4.6910    4.9370 C.3    43  PHE43       0.0574
     42  CG        31.5200    3.1950    5.0420 C.ar   43  PHE43      -0.0200
     43  CD1       31.8950    2.5930    6.2580 C.ar   43  PHE43      -0.0042
     44  CD2       31.2340    2.3680    3.9520 C.ar   43  PHE43      -0.0042
     45  CE1       31.9920    1.2030    6.3710 C.ar   43  PHE43      -0.0003
     46  CE2       31.3260    0.9900    4.0630 C.ar   43  PHE43      -0.0003
     47  CZ        31.7230    0.4070    5.2610 C.ar   43  PHE43      -0.0000
     48  N         33.5610    5.6450    6.9650 N.am   44  GLY44      -0.1940
     49  CA        34.4920    5.4280    8.0620 C.3    44  GLY44       0.2014
     50  C         33.7840    5.0860    9.3630 C.2    44  GLY44       0.2638
     51  O         32.7110    4.5370    9.3450 O.2    44  GLY44      -0.2714
     52  N         34.4500    5.4130   10.4720 N.am   45  HIS45      -0.1973
     53  CA        33.9240    5.4630   11.8780 C.3    45  HIS45       0.1656
     54  C         34.8350    4.6500   12.8160 C.2    45  HIS45       0.2291
     55  O         35.9200    5.1250   13.1810 O.2    45  HIS45      -0.2864
     56  CB        32.4490    5.0630   12.0550 C.3    45  HIS45       0.0771
     57  CG        31.4810    6.1290   11.6380 C.ar   45  HIS45       0.0820
     58  ND1       31.6650    6.9000   10.4990 N.ar   45  HIS45      -0.2267
     59  CD2       30.3070    6.5360   12.1900 C.ar   45  HIS45       0.1154
     60  CE1       30.6540    7.7470   10.3810 C.ar   45  HIS45       0.1986
     61  NE2       29.8170    7.5460   11.3920 N.ar   45  HIS45      -0.2212
     62  N         30.3860   14.2590   -0.1150 N.3    47  ASP47      -0.1239
     63  CA        31.6450   14.3640    0.6390 C.3    47  ASP47       0.1674
     64  C         32.4640   13.1350    0.3050 C.2    47  ASP47       0.2266
     65  O         32.2240   12.0550    0.8170 O.2    47  ASP47      -0.2867
     66  CB        31.3740   14.4320    2.1410 C.3    47  ASP47       0.1410
     67  CG        32.6310   14.7100    2.9770 C.2    47  ASP47       0.3668
     68  OD1       33.6990   15.0970    2.4480 O.co2  47  ASP47      -0.2456
     69  OD2       32.6170   14.5880    4.2280 O.co2  47  ASP47      -0.2456
     70  N         35.9620   10.8740   -0.4000 N.3    49  PRO49      -0.2116
     71  CA        37.2200   10.6200    0.2760 C.3    49  PRO49       0.1372
     72  C         38.3220   11.4540   -0.3600 C.2    49  PRO49       0.2244
     73  O         38.3360   11.5740   -1.5860 O.2    49  PRO49      -0.2868
     74  CB        37.4820    9.1380   -0.0270 C.3    49  PRO49       0.0268
     75  CG        36.2130    8.6000   -0.3850 C.3    49  PRO49       0.0207
     76  CD        35.4580    9.6800   -1.0800 C.3    49  PRO49       0.0892
     77  N         38.2790   12.9370   11.6230 N.3    74  ASP74      -0.1225
     78  CA        38.1090   11.4860   11.8340 C.3    74  ASP74       0.1805
     79  C         38.9950   10.6720   10.8800 C.2    74  ASP74       0.2598
     80  O         40.2110   10.5350   11.1170 O.2    74  ASP74      -0.2718
     81  CB        36.6300   11.0740   11.7410 C.3    74  ASP74       0.1424
     82  CG        36.3270    9.7120   12.3220 C.2    74  ASP74       0.3668
     83  OD1       37.1810    9.0440   12.8830 O.co2  74  ASP74      -0.2456
     84  OD2       35.1550    9.3300   12.3390 O.co2  74  ASP74      -0.2456
     85  N         38.4240   10.1520    9.7930 N.am   75  GLY75      -0.1942
     86  CA        39.2390    9.4450    8.8010 C.3    75  GLY75       0.2014
     87  C         40.1490    8.3680    9.3410 C.2    75  GLY75       0.2638
     88  O         39.7730    7.6210   10.2120 O.2    75  GLY75      -0.2714
     89  N         41.3390    8.2490    8.7840 N.am   76  LEU76      -0.1977
     90  CA        42.2480    7.1530    9.1310 C.3    76  LEU76       0.1596
     91  C         43.6610    7.5150    8.7620 C.2    76  LEU76       0.2287
     92  O         43.8390    8.1140    7.7640 O.2    76  LEU76      -0.2864
     93  CB        41.8620    5.8980    8.3640 C.3    76  LEU76       0.0297
     94  CG        42.6920    4.6460    8.6990 C.3    76  LEU76       0.0022
     95  CD1       42.0570    3.9230    9.7990 C.3    76  LEU76       0.0001
     96  CD2       42.7980    3.7940    7.5280 C.3    76  LEU76       0.0001
@<TRIPOS>BOND
     1    73    72    2
     2    76    70    1
     3    76    75    1
     4    70    71    1
     5    75    74    1
     6    72    71    1
     7    33    34    1
     8    62    63    1
     9    74    71    1
    10    64    63    1
    11    64    65    2
    12    63    66    1
    13    34    35    1
    14    66    67    1
    15    36    35    2
    16    35    37   am
    17    12    11    1
    18    10    11   ar
    19    10     8   ar
    20    68    67   ar
    21    11     9   ar
    22     8     6   ar
    23    67    69   ar
    24    23    24    2
    25    23    22    1
    26    16    15    2
    27    37    38    1
    28    22    21    1
    29    44    46   ar
    30    44    42   ar
    31     9     7   ar
    32    46    47   ar
    33     6     7   ar
    34     6     5    1
    35    20    18    1
    36    15    21   am
    37    15    14    1
    38     2     5    1
    39     2     1    1
    40     2     3    1
    41    13    14    1
    42    13     3   am
    43    38    41    1
    44    38    39    1
    45    18    19    1
    46    18    17    1
    47    41    42    1
    48    42    43   ar
    49    25    26    1
    50    47    45   ar
    51    28    27    2
    52    14    17    1
    53     3     4    2
    54    40    39    2
    55    39    48   am
    56    43    45   ar
    57    27    26    1
    58    26    29    1
    59    29    30    1
    60    48    49    1
    61    32    30   ar
    62    30    31   ar
    63    96    94    1
    64    92    91    2
    65    49    50    1
    66    93    94    1
    67    93    90    1
    68    94    95    1
    69    91    90    1
    70    89    90    1
    71    89    87   am
    72    86    87    1
    73    86    85    1
    74    87    88    2
    75    51    50    2
    76    50    52   am
    77    85    79   am
    78    60    58   ar
    79    60    61   ar
    80    52    53    1
    81    58    57   ar
    82    79    80    2
    83    79    78    1
    84    61    59   ar
    85    77    78    1
    86    57    56    1
    87    57    59   ar
    88    81    78    1
    89    81    82    1
    90    53    56    1
    91    53    54    1
    92    82    84   ar
    93    82    83   ar
    94    54    55    2
