@<TRIPOS>MOLECULE
tmp/1o57A00.pdb
 118 113 0 0 0
SMALL
GASTEIGER

@<TRIPOS>ATOM
      1  N         25.1820   31.2900   38.3550 N.3   101  TYR101     -0.1241
      2  CA        26.3630   31.6880   37.5960 C.3   101  TYR101      0.1605
      3  C         26.4090   31.0650   36.2020 C.2   101  TYR101      0.2264
      4  O         25.7410   30.0670   35.9310 O.2   101  TYR101     -0.2867
      5  CB        27.6240   31.3040   38.3740 C.3   101  TYR101      0.0534
      6  CG        27.8230   32.1170   39.6280 C.ar  101  TYR101     -0.0201
      7  CD1       26.8840   32.0940   40.6580 C.ar  101  TYR101     -0.0009
      8  CD2       28.9330   32.9470   39.7690 C.ar  101  TYR101     -0.0009
      9  CE1       27.0420   32.8810   41.7950 C.ar  101  TYR101      0.0417
     10  CE2       29.1020   33.7390   40.9030 C.ar  101  TYR101      0.0417
     11  CZ        28.1520   33.7030   41.9100 C.ar  101  TYR101      0.1957
     12  OH        28.3130   34.4970   43.0220 O.3   101  TYR101     -0.2866
     13  N         40.2950   42.3960   40.1330 N.3   136  VAL136     -0.1231
     14  CA        40.6420   41.4840   41.2000 C.3   136  VAL136      0.1692
     15  C         40.9440   40.1380   40.5580 C.2   136  VAL136      0.2592
     16  O         40.2690   39.7180   39.6020 O.2   136  VAL136     -0.2718
     17  CB        39.4840   41.3600   42.2340 C.3   136  VAL136      0.0266
     18  CG1       38.2140   40.8590   41.5520 C.3   136  VAL136      0.0020
     19  CG2       39.8950   40.4250   43.3650 C.3   136  VAL136      0.0020
     20  N         41.9740   39.4730   41.0730 N.am  137  ALA137     -0.1966
     21  CA        42.3790   38.1760   40.5540 C.3   137  ALA137      0.1728
     22  C         41.2160   37.1930   40.6730 C.2   137  ALA137      0.2617
     23  O         40.4360   37.2770   41.6180 O.2   137  ALA137     -0.2715
     24  CB        43.5940   37.6680   41.3260 C.3   137  ALA137      0.0334
     25  N         41.0780   36.2850   39.7060 N.am  138  THR138     -0.1937
     26  CA        41.9820   36.2170   38.5690 C.3   138  THR138      0.2028
     27  C         41.1880   36.3210   37.2610 C.2   138  THR138      0.2642
     28  O         41.7300   36.6900   36.2210 O.2   138  THR138     -0.2714
     29  CB        42.8150   34.8820   38.5890 C.3   138  THR138      0.1808
     30  OG1       42.1810   33.8840   37.7850 O.3   138  THR138     -0.2208
     31  CG2       42.9260   34.3500   40.0010 C.3   138  THR138      0.0379
     32  N         39.8930   36.0280   37.3320 N.am  139  LYS139     -0.1977
     33  CA        39.0360   36.0410   36.1540 C.3   139  LYS139      0.1596
     34  C         39.0540   37.3470   35.3520 C.2   139  LYS139      0.2287
     35  O         39.1200   37.3310   34.1280 O.2   139  LYS139     -0.2864
     36  CB        37.6040   35.7060   36.5590 C.3   139  LYS139      0.0298
     37  CG        36.9670   34.6240   35.7040 C.3   139  LYS139      0.0038
     38  CD        37.5400   33.2590   36.0230 C.3   139  LYS139      0.0206
     39  CE        36.5120   32.3950   36.7430 C.3   139  LYS139      0.1093
     40  NZ        37.0950   31.0980   37.2100 N.3   139  LYS139     -0.1314
     41  N         43.1890   38.4820   46.4610 N.3   160  LYS160     -0.1245
     42  CA        42.2380   38.0780   47.4840 C.3   160  LYS160      0.1561
     43  C         42.9180   37.0640   48.4060 C.2   160  LYS160      0.2260
     44  O         42.3200   36.0710   48.8190 O.2   160  LYS160     -0.2867
     45  CB        40.9640   37.4980   46.8640 C.3   160  LYS160      0.0271
     46  CG        41.1670   36.6920   45.5990 C.3   160  LYS160      0.0035
     47  CD        39.8360   36.1250   45.1050 C.3   160  LYS160      0.0206
     48  CE        38.7590   37.2070   45.0280 C.3   160  LYS160      0.1093
     49  NZ        37.4460   36.7110   44.5060 N.3   160  LYS160     -0.1314
     50  N         31.5000   38.3100   49.2640 N.3   171  SER171     -0.1217
     51  CA        31.3300   37.9170   47.8700 C.3   171  SER171      0.1889
     52  C         29.8500   37.6780   47.5960 C.2   171  SER171      0.2288
     53  O         28.9850   38.0780   48.3760 O.2   171  SER171     -0.2866
     54  CB        32.1470   36.6540   47.5890 C.3   171  SER171      0.2089
     55  OG        31.8710   36.1140   46.3080 O.3   171  SER171     -0.2183
     56  N         35.7890   44.3110   35.8590 N.3   197  ASP197     -0.1225
     57  CA        35.5530   42.9700   36.3230 C.3   197  ASP197      0.1805
     58  C         34.6970   42.1690   35.3620 C.2   197  ASP197      0.2598
     59  O         33.9980   42.7210   34.5180 O.2   197  ASP197     -0.2718
     60  CB        34.9360   42.9310   37.7110 C.3   197  ASP197      0.1424
     61  CG        35.4930   41.7660   38.5270 C.2   197  ASP197      0.3668
     62  OD1       36.1410   40.8730   37.9150 O.co2 197  ASP197     -0.2456
     63  OD2       35.3090   41.7350   39.7560 O.co2 197  ASP197     -0.2456
     64  N         34.7570   40.8560   35.4990 N.am  198  ASP198     -0.1960
     65  CA        34.0100   39.9750   34.6160 C.3   198  ASP198      0.1840
     66  C         32.5320   39.8690   34.9320 C.2   198  ASP198      0.2622
     67  O         31.6890   39.9610   34.0360 O.2   198  ASP198     -0.2715
     68  CB        34.6180   38.5650   34.6520 C.3   198  ASP198      0.1450
     69  CG        34.4890   37.9080   36.0340 C.2   198  ASP198      0.3671
     70  OD1       34.2460   36.6850   36.1060 O.co2 198  ASP198     -0.2456
     71  OD2       34.6320   38.6160   37.0510 O.co2 198  ASP198     -0.2456
     72  N         32.2150   39.6720   36.2080 N.am  199  PHE199     -0.1960
     73  CA        30.8290   39.4790   36.6190 C.3   199  PHE199      0.1771
     74  C         30.5010   40.1310   37.9470 C.2   199  PHE199      0.2619
     75  O         31.1640   39.8760   38.9360 O.2   199  PHE199     -0.2715
     76  CB        30.5520   37.9800   36.7050 C.3   199  PHE199      0.0574
     77  CG        29.1430   37.6400   37.0660 C.ar  199  PHE199     -0.0200
     78  CD1       28.0760   38.2700   36.4390 C.ar  199  PHE199     -0.0042
     79  CD2       28.8750   36.6550   38.0090 C.ar  199  PHE199     -0.0042
     80  CE1       26.7600   37.9200   36.7470 C.ar  199  PHE199     -0.0003
     81  CE2       27.5670   36.3000   38.3210 C.ar  199  PHE199     -0.0003
     82  CZ        26.5090   36.9330   37.6880 C.ar  199  PHE199     -0.0000
     83  N         29.4800   40.9730   37.9660 N.am  200  MET200     -0.1963
     84  CA        29.0670   41.6510   39.1950 C.3   200  MET200      0.1736
     85  C         27.7320   41.0750   39.5890 C.2   200  MET200      0.2616
     86  O         26.7350   41.3300   38.9250 O.2   200  MET200     -0.2715
     87  CB        28.9020   43.1510   38.9600 C.3   200  MET200      0.0427
     88  CG        28.2130   43.9310   40.0810 C.3   200  MET200      0.0599
     89  SD        27.2390   45.4920   39.4010 S.3   200  MET200     -0.1393
     90  CE        28.7230   46.6970   39.0930 C.3   200  MET200      0.0692
     91  N         27.7160   40.2750   40.6480 N.am  201  LYS201     -0.1977
     92  CA        26.4670   39.6710   41.1000 C.3   201  LYS201      0.1596
     93  C         25.9220   40.4750   42.2660 C.2   201  LYS201      0.2287
     94  O         24.9280   41.1880   42.1240 O.2   201  LYS201     -0.2864
     95  CB        26.6870   38.2190   41.5250 C.3   201  LYS201      0.0298
     96  CG        25.3870   37.4720   41.7960 C.3   201  LYS201      0.0038
     97  CD        25.6400   36.0130   42.1510 C.3   201  LYS201      0.0206
     98  CE        24.3340   35.2490   42.3700 C.3   201  LYS201      0.1093
     99  NZ        23.5070   35.1650   41.1300 N.3   201  LYS201     -0.1314
    100  N         27.8140   42.8200   44.0940 N.3   203  GLY203     -0.1225
    101  CA        28.3200   44.1810   44.0640 C.3   203  GLY203      0.1811
    102  C         29.3650   44.4460   45.1460 C.2   203  GLY203      0.2280
    103  O         30.0270   45.4860   45.1440 O.2   203  GLY203     -0.2866
    104  N         32.3420   42.9350   45.8130 N.3   205  THR205     -0.1203
    105  CA        33.7080   42.9560   45.3030 C.3   205  THR205      0.1994
    106  C         34.0850   44.3300   44.7660 C.2   205  THR205      0.2617
    107  O         35.1050   44.8870   45.1570 O.2   205  THR205     -0.2717
    108  CB        33.9010   41.9420   44.1780 C.3   205  THR205      0.1784
    109  OG1       33.4750   40.6440   44.6170 O.3   205  THR205     -0.2211
    110  CG2       35.3670   41.8870   43.7710 C.3   205  THR205      0.0376
    111  N         33.2670   44.8770   43.8710 N.am  206  ILE206     -0.1979
    112  CA        33.5520   46.1960   43.3140 C.3   206  ILE206      0.1595
    113  C         33.4670   47.2620   44.3950 C.2   206  ILE206      0.2287
    114  O         34.2190   48.2480   44.3880 O.2   206  ILE206     -0.2864
    115  CB        32.5980   46.5350   42.1420 C.3   206  ILE206      0.0276
    116  CG1       32.9580   45.6550   40.9330 C.3   206  ILE206      0.0022
    117  CG2       32.7010   48.0180   41.7900 C.3   206  ILE206      0.0022
    118  CD1       32.0140   45.7830   39.7460 C.3   206  ILE206      0.0001
@<TRIPOS>BOND
     1    67    66    2
     2    35    34    2
     3    59    58    2
     4    65    68    1
     5    65    66    1
     6    65    64    1
     7    68    69    1
     8    66    72   am
     9    34    33    1
    10    58    64   am
    11    58    57    1
    12    37    38    1
    13    37    36    1
    14    56    57    1
    15     4     3    2
    16    38    39    1
    17    69    70   ar
    18    69    71   ar
    19    33    36    1
    20    33    32    1
    21     3     2    1
    22    72    73    1
    23    28    27    2
    24    57    60    1
    25    78    80   ar
    26    78    77   ar
    27    73    76    1
    28    73    74    1
    29    76    77    1
    30    39    40    1
    31    80    82   ar
    32    77    79   ar
    33    27    32   am
    34    27    26    1
    35     2     1    1
    36     2     5    1
    37    82    81   ar
    38    60    61    1
    39    30    29    1
    40    62    61   ar
    41    74    83   am
    42    74    75    2
    43    83    84    1
    44    79    81   ar
    45     5     6    1
    46    61    63   ar
    47    26    29    1
    48    26    25    1
    49    29    31    1
    50    86    85    2
    51    87    84    1
    52    87    88    1
    53    90    89    1
    54    84    85    1
    55    89    88    1
    56    85    91   am
    57    16    15    2
    58     6     8   ar
    59     6     7   ar
    60    25    22   am
    61   118   116    1
    62     8    10   ar
    63    13    14    1
    64    21    22    1
    65    21    20    1
    66    21    24    1
    67    15    20   am
    68    15    14    1
    69    91    92    1
    70     7     9   ar
    71    22    23    2
    72    10    11   ar
    73   116   115    1
    74    92    95    1
    75    92    93    1
    76    99    98    1
    77    14    17    1
    78    95    96    1
    79    18    17    1
    80   117   115    1
    81     9    11   ar
    82    96    97    1
    83    11    12    1
    84    94    93    2
    85   115   112    1
    86    97    98    1
    87    17    19    1
    88   112   111    1
    89   112   113    1
    90   110   108    1
    91   111   106   am
    92   101   100    1
    93   101   102    1
    94   108   109    1
    95   108   105    1
    96   114   113    2
    97    49    48    1
    98   106   107    2
    99   106   105    1
   100    48    47    1
   101    47    46    1
   102   103   102    2
   103   105   104    1
   104    46    45    1
   105    55    54    1
   106    41    42    1
   107    45    42    1
   108    42    43    1
   109    54    51    1
   110    52    51    1
   111    52    53    2
   112    51    50    1
   113    43    44    2
