@<TRIPOS>MOLECULE
tmp/1o57A01.pdb
 124 118 0 0 0
SMALL
GASTEIGER

@<TRIPOS>ATOM
      1  N         46.3900   56.8260   22.8140 N.3    20  HIS20      -0.1226
      2  CA        46.3330   57.7430   23.9430 C.3    20  HIS20       0.1752
      3  C         47.6930   58.2890   24.3240 C.2    20  HIS20       0.2596
      4  O         48.0610   58.3420   25.4930 O.2    20  HIS20      -0.2718
      5  CB        45.6820   57.0490   25.1380 C.3    20  HIS20       0.0759
      6  CG        44.1950   56.9620   25.0320 C.ar   20  HIS20       0.0818
      7  ND1       43.3630   57.9940   25.4020 N.ar   20  HIS20      -0.2268
      8  CD2       43.3880   55.9530   24.6250 C.ar   20  HIS20       0.1154
      9  CE1       42.1050   57.6220   25.2460 C.ar   20  HIS20       0.1986
     10  NE2       42.0950   56.3840   24.7740 N.ar   20  HIS20      -0.2212
     11  N         48.4420   58.6560   23.3040 N.am   21  GLU21      -0.1965
     12  CA        49.7470   59.2510   23.4680 C.3    21  GLU21       0.1733
     13  C         49.8520   60.4480   22.5080 C.2    21  GLU21       0.2616
     14  O         49.5990   60.3350   21.3020 O.2    21  GLU21      -0.2715
     15  CB        50.8220   58.2080   23.1790 C.3    21  GLU21       0.0429
     16  CG        52.2010   58.7920   22.9590 C.3    21  GLU21       0.1163
     17  CD        53.2910   57.7400   22.9540 C.2    21  GLU21       0.3649
     18  OE1       54.3560   57.9870   22.3380 O.co2  21  GLU21      -0.2457
     19  OE2       53.0850   56.6740   23.5770 O.co2  21  GLU21      -0.2457
     20  N         50.1850   61.6110   23.0470 N.am   22  LEU22      -0.1977
     21  CA        50.3370   62.8120   22.2170 C.3    22  LEU22       0.1596
     22  C         51.7030   62.7310   21.5530 C.2    22  LEU22       0.2287
     23  O         52.7270   62.7610   22.2180 O.2    22  LEU22      -0.2864
     24  CB        50.2470   64.0790   23.0700 C.3    22  LEU22       0.0297
     25  CG        50.3850   65.3880   22.2890 C.3    22  LEU22       0.0022
     26  CD1       49.3320   65.4270   21.1840 C.3    22  LEU22       0.0001
     27  CD2       50.2210   66.5910   23.2380 C.3    22  LEU22       0.0001
     28  N         43.2280   62.6310   16.8290 N.3    59  LEU59      -0.1245
     29  CA        43.0880   63.9890   17.3280 C.3    59  LEU59       0.1561
     30  C         44.3290   64.8220   17.0260 C.2    59  LEU59       0.2260
     31  O         45.4270   64.4920   17.4570 O.2    59  LEU59      -0.2867
     32  CB        42.8790   63.9490   18.8370 C.3    59  LEU59       0.0270
     33  CG        41.9970   65.0190   19.4570 C.3    59  LEU59       0.0019
     34  CD1       40.5930   64.8780   18.8790 C.3    59  LEU59       0.0001
     35  CD2       41.9790   64.8490   20.9730 C.3    59  LEU59       0.0001
     36  N         46.2400   68.2020   17.6870 N.3    61  VAL61      -0.1245
     37  CA        46.3320   69.3350   18.5980 C.3    61  VAL61       0.1561
     38  C         47.3180   70.3560   18.0090 C.2    61  VAL61       0.2260
     39  O         48.5260   70.1110   17.9340 O.2    61  VAL61      -0.2867
     40  CB        46.8440   68.8800   19.9780 C.3    61  VAL61       0.0252
     41  CG1       47.0510   70.0740   20.8810 C.3    61  VAL61       0.0019
     42  CG2       45.8680   67.9160   20.5950 C.3    61  VAL61       0.0019
     43  N         47.1220   62.5090   18.3580 N.3    69  LYS69      -0.1245
     44  CA        46.8040   61.4820   19.3280 C.3    69  LYS69       0.1561
     45  C         45.7440   60.5460   18.7910 C.2    69  LYS69       0.2260
     46  O         44.6780   60.9820   18.3550 O.2    69  LYS69      -0.2867
     47  CB        46.2870   62.0920   20.6300 C.3    69  LYS69       0.0271
     48  CG        46.0310   61.0350   21.6920 C.3    69  LYS69       0.0035
     49  CD        45.2070   61.5660   22.8350 C.3    69  LYS69       0.0206
     50  CE        46.0320   62.2660   23.8640 C.3    69  LYS69       0.1093
     51  NZ        45.1090   62.6980   24.9630 N.3    69  LYS69      -0.1314
     52  N         42.9190   57.9280   19.4010 N.3    71  ILE71      -0.1245
     53  CA        41.9830   57.5280   20.4540 C.3    71  ILE71       0.1561
     54  C         41.1210   56.3730   19.9230 C.2    71  ILE71       0.2260
     55  O         40.3210   56.5780   18.9960 O.2    71  ILE71      -0.2867
     56  CB        40.9990   58.6570   20.8050 C.3    71  ILE71       0.0252
     57  CG1       41.7370   59.9540   21.1310 C.3    71  ILE71       0.0019
     58  CG2       40.1020   58.2180   21.9190 C.3    71  ILE71       0.0019
     59  CD1       42.6450   59.8280   22.2820 C.3    71  ILE71       0.0001
     60  N         36.9880   56.6290   27.1290 N.3   126  ALA126     -0.1231
     61  CA        38.0520   57.3140   26.3850 C.3   126  ALA126      0.1694
     62  C         38.3720   58.7080   26.8620 C.2   126  ALA126      0.2592
     63  O         39.5100   59.1460   26.7680 O.2   126  ALA126     -0.2718
     64  CB        37.6930   57.3900   24.9030 C.3   126  ALA126      0.0304
     65  N         37.3650   59.4250   27.3340 N.am  127  GLU127     -0.1966
     66  CA        37.5870   60.7970   27.7620 C.3   127  GLU127      0.1733
     67  C         37.7420   60.9750   29.2760 C.2   127  GLU127      0.2616
     68  O         37.8640   62.1060   29.7430 O.2   127  GLU127     -0.2715
     69  CB        36.4460   61.7050   27.2510 C.3   127  GLU127      0.0429
     70  CG        36.2810   61.8430   25.7150 C.3   127  GLU127      0.1163
     71  CD        35.6690   60.6150   25.0420 C.2   127  GLU127      0.3649
     72  OE1       34.7110   60.0130   25.6090 O.co2 127  GLU127     -0.2457
     73  OE2       36.1230   60.2290   23.9210 O.co2 127  GLU127     -0.2457
     74  N         37.7110   59.8830   30.0420 N.am  128  ARG128     -0.1963
     75  CA        37.8880   59.9510   31.4910 C.3   128  ARG128      0.1729
     76  C         39.3930   60.0520   31.6700 C.2   128  ARG128      0.2616
     77  O         40.1530   59.6110   30.8140 O.2   128  ARG128     -0.2715
     78  CB        37.3630   58.6790   32.1420 C.3   128  ARG128      0.0348
     79  CG        35.9150   58.3730   31.8370 C.3   128  ARG128      0.0492
     80  CD        34.9330   59.1780   32.6730 C.3   128  ARG128      0.2205
     81  NE        33.5510   58.7870   32.3840 N.pl3 128  ARG128     -0.0865
     82  CZ        32.8100   57.9010   33.0590 C.cat 128  ARG128      0.5346
     83  NH1       33.2910   57.2710   34.1170 N.pl3 128  ARG128      0.1354
     84  NH2       31.5690   57.6200   32.6500 N.pl3 128  ARG128      0.1354
     85  N         39.8710   60.6540   32.7370 N.am  129  GLU129     -0.1963
     86  CA        41.3240   60.7150   32.8400 C.3   129  GLU129      0.1733
     87  C         41.6550   59.5420   33.7460 C.2   129  GLU129      0.2616
     88  O         41.3620   59.5320   34.9300 O.2   129  GLU129     -0.2715
     89  CB        41.7820   62.0790   33.3750 C.3   129  GLU129      0.0429
     90  CG        42.5420   62.8960   32.2930 C.3   129  GLU129      0.1163
     91  CD        41.9280   64.2460   31.9500 C.2   129  GLU129      0.3649
     92  OE1       42.1970   64.7820   30.8370 O.co2 129  GLU129     -0.2457
     93  OE2       41.1790   64.8130   32.7830 O.co2 129  GLU129     -0.2457
     94  N         42.2230   58.5210   33.1190 N.am  130  ILE130     -0.1977
     95  CA        42.5580   57.2570   33.7670 C.3   130  ILE130      0.1596
     96  C         44.0500   57.0760   33.8270 C.2   130  ILE130      0.2287
     97  O         44.7270   57.2810   32.8090 O.2   130  ILE130     -0.2864
     98  CB        41.9190   56.0790   32.9700 C.3   130  ILE130      0.0276
     99  CG1       40.3980   56.2350   32.9810 C.3   130  ILE130      0.0022
    100  CG2       42.3410   54.7230   33.5400 C.3   130  ILE130      0.0022
    101  CD1       39.7010   55.2260   32.1280 C.3   130  ILE130      0.0001
    102  N         44.0560   51.8320   26.4300 N.3   151  LEU151     -0.1231
    103  CA        44.0800   53.1080   27.1330 C.3   151  LEU151      0.1693
    104  C         45.4700   53.6490   27.4610 C.2   151  LEU151      0.2592
    105  O         45.6130   54.7840   27.9390 O.2   151  LEU151     -0.2718
    106  CB        43.2550   52.9770   28.4190 C.3   151  LEU151      0.0284
    107  CG        41.8150   53.4840   28.5710 C.3   151  LEU151      0.0019
    108  CD1       41.2440   53.9710   27.2930 C.3   151  LEU151      0.0001
    109  CD2       40.9870   52.4150   29.1820 C.3   151  LEU151      0.0001
    110  N         46.4890   52.8320   27.2250 N.am  152  ASN152     -0.1960
    111  CA        47.8570   53.2320   27.5090 C.3   152  ASN152      0.1819
    112  C         48.0790   53.4510   29.0100 C.2   152  ASN152      0.2621
    113  O         48.6180   54.4710   29.4130 O.2   152  ASN152     -0.2715
    114  CB        48.2100   54.5260   26.7530 C.3   152  ASN152      0.1195
    115  CG        49.6700   54.9380   26.9340 C.2   152  ASN152      0.2630
    116  OD1       50.0110   56.1100   26.7910 O.2   152  ASN152     -0.2716
    117  ND2       50.5370   53.9710   27.2330 N.am  152  ASN152     -0.0877
    118  N         47.6320   52.5170   29.8380 N.am  153  VAL153     -0.1977
    119  CA        47.8490   52.6590   31.2630 C.3   153  VAL153      0.1596
    120  C         48.1930   51.3010   31.8500 C.2   153  VAL153      0.2287
    121  O         47.8440   50.2770   31.2900 O.2   153  VAL153     -0.2864
    122  CB        46.5970   53.1760   32.0210 C.3   153  VAL153      0.0276
    123  CG1       46.1360   54.5300   31.4500 C.3   153  VAL153      0.0022
    124  CG2       45.4860   52.1390   31.9500 C.3   153  VAL153      0.0022
@<TRIPOS>BOND
     1    28    29    1
     2    30    29    1
     3    30    31    2
     4    29    32    1
     5    36    37    1
     6    39    38    2
     7    38    37    1
     8    46    45    2
     9    43    44    1
    10    37    40    1
    11    45    44    1
    12    32    33    1
    13    34    33    1
    14    55    54    2
    15    44    47    1
    16    52    53    1
    17    33    35    1
    18    54    53    1
    19    40    42    1
    20    40    41    1
    21    53    56    1
    22    47    48    1
    23    56    57    1
    24    56    58    1
    25    57    59    1
    26    26    25    1
    27    14    13    2
    28    22    21    1
    29    22    23    2
    30    48    49    1
    31    21    20    1
    32    21    24    1
    33    25    24    1
    34    25    27    1
    35    18    17   ar
    36    13    20   am
    37    13    12    1
    38     1     2    1
    39    49    50    1
    40    17    16    1
    41    17    19   ar
    42    16    15    1
    43    15    12    1
    44    11    12    1
    45    11     3   am
    46    50    51    1
    47    73    71   ar
    48     2     3    1
    49     2     5    1
    50     3     4    2
    51     8    10   ar
    52     8     6   ar
    53    10     9   ar
    54    64    61    1
    55     6     5    1
    56     6     7   ar
    57    71    72   ar
    58    71    70    1
    59     9     7   ar
    60    70    69    1
    61    61    62    1
    62    61    60    1
    63   102   103    1
    64   114   115    1
    65   114   111    1
    66    63    62    2
    67   116   115    2
    68    62    65   am
    69   115   117   am
    70   103   104    1
    71   103   106    1
    72   110   104   am
    73   110   111    1
    74    69    66    1
    75   108   107    1
    76    65    66    1
    77   104   105    2
    78   111   112    1
    79    66    67    1
    80   106   107    1
    81   107   109    1
    82   112   113    2
    83   112   118   am
    84    67    68    2
    85    67    74   am
    86   118   119    1
    87    74    75    1
    88    77    76    2
    89    92    91   ar
    90   119   120    1
    91   119   122    1
    92   121   120    2
    93   123   122    1
    94    75    76    1
    95    75    78    1
    96    76    85   am
    97    79    78    1
    98    79    80    1
    99   124   122    1
   100    91    90    1
   101    91    93   ar
   102   101    99    1
   103    90    89    1
   104    81    80    1
   105    81    82    2
   106    84    82    1
   107    85    86    1
   108    97    96    2
   109    86    89    1
   110    86    87    1
   111    98    99    1
   112    98   100    1
   113    98    95    1
   114    82    83    1
   115    94    87   am
   116    94    95    1
   117    87    88    2
   118    95    96    1
