@<TRIPOS>MOLECULE
tmp/1o57C00.pdb
 97 95 0 0 0
SMALL
GASTEIGER

@<TRIPOS>ATOM
      1  N         58.9740    3.0280   54.1080 N.3    17  LEU17      -0.1231
      2  CA        58.7690    3.0610   55.5570 C.3    17  LEU17       0.1693
      3  C         59.9090    3.6910   56.3150 C.2    17  LEU17       0.2592
      4  O         59.6930    4.3270   57.3300 O.2    17  LEU17      -0.2718
      5  CB        58.5170    1.6510   56.0980 C.3    17  LEU17       0.0284
      6  CG        57.1440    1.1260   55.6710 C.3    17  LEU17       0.0019
      7  CD1       56.9930   -0.3280   56.0600 C.3    17  LEU17       0.0001
      8  CD2       56.0420    1.9850   56.3330 C.3    17  LEU17       0.0001
      9  N         61.1300    3.5400   55.8220 N.am   18  THR18      -0.1953
     10  CA        62.2580    4.1270   56.5170 C.3    18  THR18       0.1897
     11  C         62.6480    5.5050   55.9940 C.2    18  THR18       0.2313
     12  O         63.5970    6.1040   56.4910 O.2    18  THR18      -0.2863
     13  CB        63.5110    3.2190   56.4390 C.3    18  THR18       0.1794
     14  OG1       63.7620    2.8810   55.0690 O.3    18  THR18      -0.2208
     15  CG2       63.3090    1.9190   57.2900 C.3    18  THR18       0.0378
     16  N         60.1740    8.2580   55.3700 N.3    20  PRO20      -0.2116
     17  CA        58.9100    8.9900   55.2840 C.3    20  PRO20       0.1372
     18  C         59.1190   10.4720   54.9310 C.2    20  PRO20       0.2244
     19  O         60.1870   11.0320   55.1570 O.2    20  PRO20      -0.2868
     20  CB        58.3100    8.7890   56.6820 C.3    20  PRO20       0.0268
     21  CG        59.5210    8.8120   57.5470 C.3    20  PRO20       0.0207
     22  CD        60.5630    8.0200   56.7750 C.3    20  PRO20       0.0892
     23  N         56.1280    9.0610   50.8190 N.3    71  TYR71      -0.1241
     24  CA        55.2350    8.3130   51.6990 C.3    71  TYR71       0.1605
     25  C         54.8710    9.2320   52.8820 C.2    71  TYR71       0.2264
     26  O         55.7410    9.8860   53.4840 O.2    71  TYR71      -0.2867
     27  CB        55.9140    7.0220   52.1850 C.3    71  TYR71       0.0534
     28  CG        55.3700    6.4800   53.4980 C.ar   71  TYR71      -0.0201
     29  CD1       54.0370    6.1510   53.6410 C.ar   71  TYR71      -0.0009
     30  CD2       56.2200    6.2970   54.6020 C.ar   71  TYR71      -0.0009
     31  CE1       53.5460    5.6550   54.8390 C.ar   71  TYR71       0.0417
     32  CE2       55.7400    5.8000   55.8080 C.ar   71  TYR71       0.0417
     33  CZ        54.4010    5.4820   55.9150 C.ar   71  TYR71       0.1957
     34  OH        53.9080    4.9680   57.0830 O.3    71  TYR71      -0.2866
     35  N         58.8420    2.0300   73.3890 N.3   112  PRO112     -0.2116
     36  CA        58.8020    2.4430   71.9750 C.3   112  PRO112      0.1372
     37  C         57.4980    2.1490   71.2470 C.2   112  PRO112      0.2244
     38  O         57.1510    2.8410   70.3080 O.2   112  PRO112     -0.2868
     39  CB        60.0040    1.7190   71.3520 C.3   112  PRO112      0.0268
     40  CG        61.0200    1.7500   72.4930 C.3   112  PRO112      0.0207
     41  CD        60.1590    1.4470   73.7380 C.3   112  PRO112      0.0892
     42  N         55.2280    5.0660   72.1820 N.3   115  LEU115     -0.1231
     43  CA        55.7880    6.2490   71.5810 C.3   115  LEU115      0.1693
     44  C         55.6010    6.2680   70.0920 C.2   115  LEU115      0.2592
     45  O         55.3730    7.3060   69.4960 O.2   115  LEU115     -0.2718
     46  CB        57.2800    6.3180   71.8740 C.3   115  LEU115      0.0284
     47  CG        57.7010    6.7700   73.2510 C.3   115  LEU115      0.0019
     48  CD1       59.1960    6.6430   73.3330 C.3   115  LEU115      0.0001
     49  CD2       57.2740    8.2170   73.4900 C.3   115  LEU115      0.0001
     50  N         55.7410    5.1010   69.4880 N.am  116  SER116     -0.1952
     51  CA        55.6150    4.9800   68.0640 C.3   116  SER116      0.1924
     52  C         54.2260    5.4400   67.6060 C.2   116  SER116      0.2314
     53  O         54.1100    6.1760   66.6320 O.2   116  SER116     -0.2863
     54  CB        55.8240    3.5260   67.6410 C.3   116  SER116      0.2116
     55  OG        56.0090    3.4930   66.2400 O.3   116  SER116     -0.2180
     56  N         61.5580   11.8210   74.1690 N.3   143  PRO143     -0.2116
     57  CA        61.1760   10.6690   73.3390 C.3   143  PRO143      0.1372
     58  C         59.9520   10.9280   72.4710 C.2   143  PRO143      0.2244
     59  O         59.8900   10.4260   71.3610 O.2   143  PRO143     -0.2868
     60  CB        60.9490    9.5510   74.3630 C.3   143  PRO143      0.0268
     61  CG        60.5080   10.3020   75.5890 C.3   143  PRO143      0.0207
     62  CD        61.4680   11.4920   75.6030 C.3   143  PRO143      0.0892
     63  N         61.2920   12.8720   69.4690 N.3   146  TYR146     -0.1227
     64  CA        61.9990   12.0520   68.4690 C.3   146  TYR146      0.1736
     65  C         61.0380   11.1640   67.7100 C.2   146  TYR146      0.2595
     66  O         61.1730   11.0080   66.5070 O.2   146  TYR146     -0.2718
     67  CB        63.1340   11.2030   69.0820 C.3   146  TYR146      0.0548
     68  CG        64.4020   12.0140   69.1850 C.ar  146  TYR146     -0.0200
     69  CD1       64.6740   12.7650   70.3260 C.ar  146  TYR146     -0.0009
     70  CD2       65.2880   12.1140   68.1080 C.ar  146  TYR146     -0.0009
     71  CE1       65.7930   13.5910   70.4040 C.ar  146  TYR146      0.0417
     72  CE2       66.4250   12.9620   68.1750 C.ar  146  TYR146      0.0417
     73  CZ        66.6660   13.6880   69.3330 C.ar  146  TYR146      0.1957
     74  OH        67.7940   14.4800   69.4650 O.3   146  TYR146     -0.2866
     75  N         60.0270   10.6460   68.4000 N.am  147  ALA147     -0.1980
     76  CA        59.0400    9.7870   67.7470 C.3   147  ALA147      0.1597
     77  C         58.3070   10.5700   66.6600 C.2   147  ALA147      0.2287
     78  O         58.1660   10.1100   65.5310 O.2   147  ALA147     -0.2864
     79  CB        58.0460    9.2390   68.7960 C.3   147  ALA147      0.0319
     80  N         60.7780   11.4380   63.7780 N.3   150  SER150     -0.1202
     81  CA        61.1660   10.3550   62.8680 C.3   150  SER150      0.2020
     82  C         60.0890   10.1000   61.8010 C.2   150  SER150      0.2618
     83  O         60.4050    9.7850   60.6600 O.2   150  SER150     -0.2717
     84  CB        61.4990    9.0660   63.6540 C.3   150  SER150      0.2103
     85  OG        60.3490    8.5240   64.2630 O.3   150  SER150     -0.2182
     86  N         58.8160   10.2650   62.1350 N.am  151  TYR151     -0.1975
     87  CA        57.8120   10.0600   61.1100 C.3   151  TYR151      0.1639
     88  C         57.7680   11.2310   60.1430 C.2   151  TYR151      0.2290
     89  O         57.4090   11.0640   58.9850 O.2   151  TYR151     -0.2864
     90  CB        56.4220    9.8870   61.6940 C.3   151  TYR151      0.0560
     91  CG        56.1700    8.5510   62.3150 C.ar  151  TYR151     -0.0198
     92  CD1       56.2230    8.3850   63.7090 C.ar  151  TYR151     -0.0009
     93  CD2       55.8430    7.4460   61.5170 C.ar  151  TYR151     -0.0009
     94  CE1       55.9490    7.1570   64.2900 C.ar  151  TYR151      0.0417
     95  CE2       55.5560    6.1960   62.0920 C.ar  151  TYR151      0.0417
     96  CZ        55.6080    6.0720   63.4790 C.ar  151  TYR151      0.1957
     97  OH        55.2770    4.8880   64.0620 O.3   151  TYR151     -0.2866
@<TRIPOS>BOND
     1    23    24    1
     2    24    27    1
     3    24    25    1
     4    27    28    1
     5    25    26    2
     6    28    29   ar
     7    28    30   ar
     8    29    31   ar
     9     1     2    1
    10    30    32   ar
    11    31    33   ar
    12    18    19    2
    13    18    17    1
    14    14    13    1
    15    17    16    1
    16    17    20    1
    17    16    22    1
    18     2     5    1
    19     2     3    1
    20     6     7    1
    21     6     5    1
    22     6     8    1
    23    32    33   ar
    24     9     3   am
    25     9    10    1
    26    33    34    1
    27    11    12    2
    28    11    10    1
    29     3     4    2
    30    13    10    1
    31    13    15    1
    32    20    21    1
    33    22    21    1
    34    89    88    2
    35    88    87    1
    36    83    82    2
    37    87    90    1
    38    87    86    1
    39    93    95   ar
    40    93    91   ar
    41    90    91    1
    42    82    86   am
    43    82    81    1
    44    95    96   ar
    45    91    92   ar
    46    81    84    1
    47    81    80    1
    48    96    97    1
    49    96    94   ar
    50    84    85    1
    51    92    94   ar
    52    78    77    2
    53    55    54    1
    54    66    65    2
    55    53    52    2
    56    77    76    1
    57    52    51    1
    58    54    51    1
    59    65    75   am
    60    65    64    1
    61    76    75    1
    62    76    79    1
    63    51    50    1
    64    70    72   ar
    65    70    68   ar
    66    72    73   ar
    67    64    67    1
    68    64    63    1
    69    67    68    1
    70    68    69   ar
    71    73    74    1
    72    73    71   ar
    73    50    44   am
    74    45    44    2
    75    44    43    1
    76    38    37    2
    77    69    71   ar
    78    37    36    1
    79    39    36    1
    80    39    40    1
    81    59    58    2
    82    43    46    1
    83    43    42    1
    84    46    47    1
    85    36    35    1
    86    58    57    1
    87    40    41    1
    88    47    48    1
    89    47    49    1
    90    57    56    1
    91    57    60    1
    92    35    41    1
    93    56    62    1
    94    60    61    1
    95    61    62    1
