@<TRIPOS>MOLECULE
tmp/1o57A02.pdb
 97 95 0 0 0
SMALL
GASTEIGER

@<TRIPOS>ATOM
      1  N         48.4990   52.9050   15.8130 N.3    16  LEU16      -0.1231
      2  CA        47.7380   51.8200   16.4090 C.3    16  LEU16       0.1693
      3  C         48.4360   51.2250   17.6160 C.2    16  LEU16       0.2592
      4  O         47.7760   50.7590   18.5410 O.2    16  LEU16      -0.2718
      5  CB        47.4550   50.7200   15.3860 C.3    16  LEU16       0.0284
      6  CG        46.4980   51.1330   14.2720 C.3    16  LEU16       0.0019
      7  CD1       46.5460   50.0530   13.1710 C.3    16  LEU16       0.0001
      8  CD2       45.0830   51.2990   14.8150 C.3    16  LEU16       0.0001
      9  N         49.7660   51.2470   17.6280 N.am   17  THR17      -0.1953
     10  CA        50.4800   50.6800   18.7670 C.3    17  THR17       0.1897
     11  C         50.8460   51.7180   19.8290 C.2    17  THR17       0.2313
     12  O         51.4950   51.3780   20.8060 O.2    17  THR17      -0.2863
     13  CB        51.7410   49.9170   18.3250 C.3    17  THR17       0.1794
     14  OG1       52.5970   50.7900   17.5840 O.3    17  THR17      -0.2208
     15  CG2       51.3560   48.7250   17.4200 C.3    17  THR17       0.0378
     16  N         48.3630   54.1540   21.3190 N.3    19  PRO19      -0.2116
     17  CA        47.1400   54.9130   21.5500 C.3    19  PRO19       0.1372
     18  C         47.2210   55.7900   22.7890 C.2    19  PRO19       0.2244
     19  O         48.0050   55.5220   23.6940 O.2    19  PRO19      -0.2868
     20  CB        46.0850   53.8190   21.6810 C.3    19  PRO19       0.0268
     21  CG        46.8700   52.7100   22.3640 C.3    19  PRO19       0.0207
     22  CD        48.1830   52.7270   21.6380 C.3    19  PRO19       0.0892
     23  N         46.0300   59.2560   18.8440 N.3    70  TYR70      -0.1241
     24  CA        45.0980   58.2510   18.3580 C.3    70  TYR70       0.1605
     25  C         44.2360   57.7730   19.5250 C.2    70  TYR70       0.2264
     26  O         44.7580   57.3030   20.5320 O.2    70  TYR70      -0.2867
     27  CB        45.8700   57.0700   17.6990 C.3    70  TYR70       0.0534
     28  CG        44.9860   55.8500   17.5200 C.ar   70  TYR70      -0.0201
     29  CD1       43.7450   55.9680   16.8930 C.ar   70  TYR70      -0.0009
     30  CD2       45.3250   54.6220   18.0870 C.ar   70  TYR70      -0.0009
     31  CE1       42.8410   54.9150   16.8420 C.ar   70  TYR70       0.0417
     32  CE2       44.4290   53.5300   18.0400 C.ar   70  TYR70       0.0417
     33  CZ        43.1910   53.6920   17.4150 C.ar   70  TYR70       0.1957
     34  OH        42.2940   52.6580   17.3440 O.3    70  TYR70      -0.2866
     35  N         41.5460   35.9330   22.8830 N.3   111  PRO111     -0.2116
     36  CA        42.0180   37.2990   22.6590 C.3   111  PRO111      0.1372
     37  C         41.1120   38.0960   21.7190 C.2   111  PRO111      0.2244
     38  O         40.9490   39.2960   21.8990 O.2   111  PRO111     -0.2868
     39  CB        43.4150   37.0920   22.0780 C.3   111  PRO111      0.0268
     40  CG        43.8850   35.8760   22.8610 C.3   111  PRO111      0.0207
     41  CD        42.6570   34.9670   22.7560 C.3   111  PRO111      0.0892
     42  N         38.3490   39.2650   23.8720 N.3   114  LEU114     -0.1231
     43  CA        38.9030   40.2000   24.8360 C.3   114  LEU114      0.1693
     44  C         39.2240   41.5520   24.2170 C.2   114  LEU114      0.2592
     45  O         38.9660   42.5880   24.8000 O.2   114  LEU114     -0.2718
     46  CB        40.1700   39.6250   25.4630 C.3   114  LEU114      0.0284
     47  CG        39.8980   38.4860   26.4380 C.3   114  LEU114      0.0019
     48  CD1       41.2140   38.0150   27.0160 C.3   114  LEU114      0.0001
     49  CD2       38.9840   38.9810   27.5500 C.3   114  LEU114      0.0001
     50  N         39.8120   41.5140   23.0380 N.am  115  SER115     -0.1952
     51  CA        40.1870   42.6920   22.2880 C.3   115  SER115      0.1924
     52  C         38.9680   43.6100   22.0730 C.2   115  SER115      0.2314
     53  O         39.0530   44.8140   22.2950 O.2   115  SER115     -0.2863
     54  CB        40.7620   42.2540   20.9360 C.3   115  SER115      0.2116
     55  OG        40.9060   43.3570   20.0740 O.3   115  SER115     -0.2180
     56  N         42.5160   39.2110   32.2980 N.3   142  PRO142     -0.2116
     57  CA        42.6630   39.4710   30.8620 C.3   142  PRO142      0.1372
     58  C         41.7980   40.6460   30.3560 C.2   142  PRO142      0.2244
     59  O         42.2570   41.4110   29.5160 O.2   142  PRO142     -0.2868
     60  CB        42.3120   38.1190   30.2320 C.3   142  PRO142      0.0268
     61  CG        41.2810   37.5860   31.1720 C.3   142  PRO142      0.0207
     62  CD        41.9100   37.8880   32.5300 C.3   142  PRO142      0.0892
     63  N         43.6620   43.8390   31.2570 N.3   145  TYR145     -0.1227
     64  CA        44.7760   44.1250   30.3620 C.3   145  TYR145      0.1736
     65  C         44.3150   44.5630   28.9890 C.2   145  TYR145      0.2595
     66  O         44.9240   45.4470   28.3920 O.2   145  TYR145     -0.2718
     67  CB        45.7210   42.9270   30.2480 C.3   145  TYR145      0.0548
     68  CG        46.7130   42.8910   31.4000 C.ar  145  TYR145     -0.0200
     69  CD1       46.4060   42.2520   32.5930 C.ar  145  TYR145     -0.0009
     70  CD2       47.9330   43.5460   31.3040 C.ar  145  TYR145     -0.0009
     71  CE1       47.2910   42.2640   33.6620 C.ar  145  TYR145      0.0417
     72  CE2       48.8230   43.5620   32.3590 C.ar  145  TYR145      0.0417
     73  CZ        48.4970   42.9170   33.5340 C.ar  145  TYR145      0.1957
     74  OH        49.4160   42.9120   34.5640 O.3   145  TYR145     -0.2866
     75  N         43.2170   43.9830   28.5050 N.am  146  ALA146     -0.1980
     76  CA        42.7260   44.3620   27.1920 C.3   146  ALA146      0.1597
     77  C         42.3160   45.8340   27.2010 C.2   146  ALA146      0.2287
     78  O         42.6890   46.5780   26.3050 O.2   146  ALA146     -0.2864
     79  CB        41.5500   43.4760   26.7860 C.3   146  ALA146      0.0319
     80  N         45.4790   48.1460   27.5750 N.3   149  SER149     -0.1202
     81  CA        46.3620   48.3120   26.4420 C.3   149  SER149      0.2020
     82  C         45.7750   49.3590   25.4880 C.2   149  SER149      0.2618
     83  O         46.5250   50.1610   24.9170 O.2   149  SER149     -0.2717
     84  CB        46.6240   46.9630   25.7430 C.3   149  SER149      0.2103
     85  OG        45.4300   46.4020   25.2480 O.3   149  SER149     -0.2182
     86  N         44.4550   49.4020   25.3370 N.am  150  TYR150     -0.1975
     87  CA        43.8920   50.4280   24.4580 C.3   150  TYR150      0.1639
     88  C         43.9760   51.7970   25.1030 C.2   150  TYR150      0.2290
     89  O         43.9830   52.8120   24.4070 O.2   150  TYR150     -0.2864
     90  CB        42.4280   50.1750   24.1340 C.3   150  TYR150      0.0560
     91  CG        42.1730   49.0810   23.1550 C.ar  150  TYR150     -0.0198
     92  CD1       41.7310   47.8200   23.5870 C.ar  150  TYR150     -0.0009
     93  CD2       42.3220   49.3070   21.7860 C.ar  150  TYR150     -0.0009
     94  CE1       41.4440   46.8170   22.6740 C.ar  150  TYR150      0.0417
     95  CE2       42.0170   48.3000   20.8500 C.ar  150  TYR150      0.0417
     96  CZ        41.5840   47.0670   21.3080 C.ar  150  TYR150      0.1957
     97  OH        41.2650   46.0880   20.4080 O.3   150  TYR150     -0.2866
@<TRIPOS>BOND
     1     7     6    1
     2     6     8    1
     3     6     5    1
     4     5     2    1
     5     1     2    1
     6     2     3    1
     7    31    29   ar
     8    31    33   ar
     9    29    28   ar
    10    34    33    1
    11    33    32   ar
    12    15    13    1
    13    28    27    1
    14    28    30   ar
    15    14    13    1
    16     3     9   am
    17     3     4    2
    18     9    10    1
    19    27    24    1
    20    32    30   ar
    21    13    10    1
    22    24    23    1
    23    24    25    1
    24    10    11    1
    25    25    26    2
    26    11    12    2
    27    55    54    1
    28    97    96    1
    29    95    96   ar
    30    95    93   ar
    31    54    51    1
    32    96    94   ar
    33    16    17    1
    34    16    22    1
    35    17    20    1
    36    17    18    1
    37    22    21    1
    38    20    21    1
    39    37    38    2
    40    37    36    1
    41    93    91   ar
    42    52    51    1
    43    52    53    2
    44    39    36    1
    45    39    40    1
    46    51    50    1
    47    36    35    1
    48    94    92   ar
    49    41    40    1
    50    41    35    1
    51    18    19    2
    52    50    44   am
    53    91    92   ar
    54    91    90    1
    55    42    43    1
    56    90    87    1
    57    44    45    2
    58    44    43    1
    59    89    88    2
    60    87    88    1
    61    87    86    1
    62    43    46    1
    63    83    82    2
    64    85    84    1
    65    86    82   am
    66    46    47    1
    67    82    81    1
    68    84    81    1
    69    78    77    2
    70    47    48    1
    71    47    49    1
    72    81    80    1
    73    79    76    1
    74    76    77    1
    75    76    75    1
    76    66    65    2
    77    75    65   am
    78    65    64    1
    79    59    58    2
    80    60    57    1
    81    60    61    1
    82    67    64    1
    83    67    68    1
    84    58    57    1
    85    64    63    1
    86    57    56    1
    87    61    62    1
    88    70    68   ar
    89    70    72   ar
    90    68    69   ar
    91    56    62    1
    92    72    73   ar
    93    69    71   ar
    94    73    71   ar
    95    73    74    1
