@<TRIPOS>MOLECULE
tmp/1o5cB00.pdb
 173 172 0 0 0
SMALL
GASTEIGER

@<TRIPOS>ATOM
      1  N         22.5340   10.5760   21.8100 N.3    29  TYR29      -0.1227
      2  CA        21.8860    9.4260   21.1210 C.3    29  TYR29       0.1736
      3  C         20.4020    9.7530   20.8920 C.2    29  TYR29       0.2595
      4  O         19.7550   10.3440   21.7410 O.2    29  TYR29      -0.2718
      5  CB        22.0190    8.2140   22.0150 C.3    29  TYR29       0.0548
      6  CG        21.5590    6.9440   21.2970 C.ar   29  TYR29      -0.0200
      7  CD1       22.2820    6.4420   20.2290 C.ar   29  TYR29      -0.0009
      8  CD2       20.4480    6.2460   21.7330 C.ar   29  TYR29      -0.0009
      9  CE1       21.9080    5.2650   19.6210 C.ar   29  TYR29       0.0417
     10  CE2       20.0850    5.0700   21.1180 C.ar   29  TYR29       0.0417
     11  CZ        20.8120    4.5710   20.0670 C.ar   29  TYR29       0.1957
     12  OH        20.4990    3.3790   19.4610 O.3    29  TYR29      -0.2866
     13  N         19.9150    9.3370   19.7650 N.am   30  VAL30      -0.1966
     14  CA        18.4940    9.5660   19.3700 C.3    30  VAL30       0.1727
     15  C         17.7220    8.1960   19.4050 C.2    30  VAL30       0.2616
     16  O         16.9350    7.9740   20.3070 O.2    30  VAL30      -0.2715
     17  CB        18.4830   10.1890   17.9260 C.3    30  VAL30       0.0290
     18  CG1       17.0460   10.4750   17.4680 C.3    30  VAL30       0.0023
     19  CG2       19.2880   11.5310   17.8910 C.3    30  VAL30       0.0023
     20  N         18.0000    7.3520   18.4390 N.am   31  CYS31      -0.1968
     21  CA        17.3570    6.0210   18.3070 C.3    31  CYS31       0.1712
     22  C         18.2600    4.9800   17.6590 C.2    31  CYS31       0.2296
     23  O         19.3540    5.2700   17.2000 O.2    31  CYS31      -0.2864
     24  CB        16.1140    6.1960   17.4620 C.3    31  CYS31       0.0983
     25  SG        14.7530    7.0900   18.2460 S.3    31  CYS31      -0.0798
     26  N          8.8930    8.7050   14.5180 N.3    46  HIS46      -0.1226
     27  CA         8.8430    9.5240   15.7620 C.3    46  HIS46       0.1752
     28  C         10.2130    9.9070   16.2880 C.2    46  HIS46       0.2596
     29  O         10.3220   10.7960   17.1130 O.2    46  HIS46      -0.2718
     30  CB         8.0360    8.8000   16.9060 C.3    46  HIS46       0.0759
     31  CG         8.7440    7.8350   17.8580 C.ar   46  HIS46       0.0818
     32  ND1        8.7450    6.5300   17.7450 N.ar   46  HIS46      -0.2268
     33  CD2        9.4800    8.1230   19.0110 C.ar   46  HIS46       0.1154
     34  CE1        9.4070    6.0120   18.7240 C.ar   46  HIS46       0.1986
     35  NE2        9.8540    6.9590   19.4920 N.ar   46  HIS46      -0.2212
     36  N         11.2200    9.2420   15.8110 N.am   47  CYS47      -0.1970
     37  CA        12.5950    9.5770   16.2880 C.3    47  CYS47       0.1712
     38  C         13.0590   10.9040   15.6450 C.2    47  CYS47       0.2296
     39  O         13.8880   11.6040   16.2050 O.2    47  CYS47      -0.2864
     40  CB        13.5620    8.4680   15.8780 C.3    47  CYS47       0.0983
     41  SG        13.3660    6.9170   16.7830 S.3    47  CYS47      -0.0798
     42  N         10.1280   15.5590   15.3800 N.3    50  ASP50      -0.1239
     43  CA        10.3540   16.8590   16.0550 C.3    50  ASP50       0.1674
     44  C         11.5620   17.6360   15.5850 C.2    50  ASP50       0.2266
     45  O         11.6330   18.8150   15.8780 O.2    50  ASP50      -0.2867
     46  CB        10.4930   16.6340   17.5790 C.3    50  ASP50       0.1410
     47  CG         9.1890   16.1220   18.2610 C.2    50  ASP50       0.3668
     48  OD1        9.3610   15.5600   19.3300 O.co2  50  ASP50      -0.2456
     49  OD2        8.1090   16.3110   17.7180 O.co2  50  ASP50      -0.2456
     50  N          1.7130    5.4080   17.9840 N.3    94  HIS94      -0.1241
     51  CA         2.3900    6.0920   16.8670 C.3    94  HIS94       0.1621
     52  C          1.8960    5.2020   15.7230 C.2    94  HIS94       0.2264
     53  O          2.0490    3.9910   15.7830 O.2    94  HIS94      -0.2867
     54  CB         3.9170    5.9860   16.9530 C.3    94  HIS94       0.0745
     55  CG         4.5110    6.8400   18.0730 C.ar   94  HIS94       0.0817
     56  ND1        4.5810    8.1510   18.1480 N.ar   94  HIS94      -0.2268
     57  CD2        5.0820    6.3600   19.2370 C.ar   94  HIS94       0.1154
     58  CE1        5.1570    8.4730   19.2700 C.ar   94  HIS94       0.1986
     59  NE2        5.4650    7.3980   19.9390 N.ar   94  HIS94      -0.2212
     60  N         21.5700    6.4400   29.5750 N.3   150  TYR150     -0.1241
     61  CA        21.5280    5.1870   28.7610 C.3   150  TYR150      0.1605
     62  C         22.8080    4.3630   29.1010 C.2   150  TYR150      0.2264
     63  O         23.8410    4.9330   29.4500 O.2   150  TYR150     -0.2867
     64  CB        21.5820    5.4840   27.2890 C.3   150  TYR150      0.0534
     65  CG        20.3020    6.1470   26.7650 C.ar  150  TYR150     -0.0201
     66  CD1       19.0470    5.8210   27.2580 C.ar  150  TYR150     -0.0009
     67  CD2       20.3930    7.0660   25.7560 C.ar  150  TYR150     -0.0009
     68  CE1       17.9190    6.4040   26.7460 C.ar  150  TYR150      0.0417
     69  CE2       19.2570    7.6490   25.2450 C.ar  150  TYR150      0.0417
     70  CZ        18.0170    7.3120   25.7440 C.ar  150  TYR150      0.1957
     71  OH        16.8530    7.8660   25.2630 O.3   150  TYR150     -0.2866
     72  N         12.1160   -6.3390   28.5400 N.3   192  ASP192     -0.1225
     73  CA        11.3510   -5.5730   27.4940 C.3   192  ASP192      0.1805
     74  C         12.2480   -4.4500   26.9250 C.2   192  ASP192      0.2598
     75  O         13.3620   -4.2330   27.3890 O.2   192  ASP192     -0.2718
     76  CB        10.1150   -4.9430   28.1970 C.3   192  ASP192      0.1424
     77  CG         9.0030   -4.3350   27.3090 C.2   192  ASP192      0.3668
     78  OD1        9.0250   -4.4730   26.1020 O.co2 192  ASP192     -0.2456
     79  OD2        8.1400   -3.7390   27.9260 O.co2 192  ASP192     -0.2456
     80  N         11.7110   -3.7790   25.9390 N.am  193  ALA193     -0.1966
     81  CA        12.4240   -2.6400   25.2980 C.3   193  ALA193      0.1728
     82  C         11.9590   -1.4630   26.2110 C.2   193  ALA193      0.2616
     83  O         11.0350   -1.6140   26.9930 O.2   193  ALA193     -0.2715
     84  CB        11.9240   -2.3780   23.9020 C.3   193  ALA193      0.0334
     85  N         12.6010   -0.3390   26.0960 N.am  194  CYS194     -0.1954
     86  CA        12.2400    0.8450   26.9330 C.3   194  CYS194      0.1843
     87  C         12.7270    2.0630   26.1420 C.2   194  CYS194      0.2625
     88  O         13.2940    1.9050   25.0690 O.2   194  CYS194     -0.2714
     89  CB        12.9460    0.7910   28.3590 C.3   194  CYS194      0.0997
     90  SG        12.2350    1.8050   29.6910 S.3   194  CYS194     -0.0797
     91  N         12.4920    3.2170   26.7000 N.am  195  GLN195     -0.1963
     92  CA        12.8880    4.5010   26.0590 C.3   195  GLN195      0.1733
     93  C         14.3520    4.3960   25.7240 C.2   195  GLN195      0.2616
     94  O         15.1440    3.9640   26.5350 O.2   195  GLN195     -0.2715
     95  CB        12.5830    5.6530   27.0640 C.3   195  GLN195      0.0408
     96  CG        12.9280    7.0370   26.4480 C.3   195  GLN195      0.0908
     97  CD        12.3590    8.1640   27.3210 C.2   195  GLN195      0.2608
     98  OE1       12.5960    9.3230   27.0650 O.2   195  GLN195     -0.2717
     99  NE2       11.6110    7.9190   28.3550 N.am  195  GLN195     -0.0878
    100  N         14.6360    4.8220   24.5410 N.am  196  GLY196     -0.1955
    101  CA        16.0230    4.7970   24.0180 C.3   196  GLY196      0.1869
    102  C         16.1180    3.6340   23.0390 C.2   196  GLY196      0.2309
    103  O         16.9690    3.6100   22.1710 O.2   196  GLY196     -0.2863
    104  N         13.7030    2.8070   20.9330 N.3   198  SER198     -0.1217
    105  CA        12.8760    3.1700   19.7390 C.3   198  SER198      0.1889
    106  C         13.7010    3.1070   18.4220 C.2   198  SER198      0.2288
    107  O         14.8870    3.4350   18.4370 O.2   198  SER198     -0.2866
    108  CB        12.3630    4.6310   19.8470 C.3   198  SER198      0.2089
    109  OG        11.3420    4.7220   20.8470 O.3   198  SER198     -0.2183
    110  N         10.9690   -1.2020   16.9530 N.3   216  VAL216     -0.1231
    111  CA        10.5360   -0.7840   18.3270 C.3   216  VAL216      0.1692
    112  C          9.8230    0.5860   18.1620 C.2   216  VAL216      0.2593
    113  O         10.4390    1.5360   17.6910 O.2   216  VAL216     -0.2718
    114  CB        11.8040   -0.6450   19.2580 C.3   216  VAL216      0.0266
    115  CG1       11.3820   -0.2370   20.6470 C.3   216  VAL216      0.0020
    116  CG2       12.5680   -1.9810   19.3960 C.3   216  VAL216      0.0020
    117  N          8.5770    0.6380   18.5570 N.am  217  SER217     -0.1938
    118  CA         7.7880    1.9010   18.4360 C.3   217  SER217      0.2055
    119  C          7.2890    2.4970   19.7790 C.2   217  SER217      0.2643
    120  O          7.6530    3.6110   20.1340 O.2   217  SER217     -0.2714
    121  CB         6.6200    1.5670   17.4920 C.3   217  SER217      0.2130
    122  OG         5.8430    2.7520   17.2940 O.3   217  SER217     -0.2179
    123  N          6.4700    1.7860   20.5130 N.am  218  TRP218     -0.1959
    124  CA         5.9740    2.3520   21.8020 C.3   218  TRP218      0.1771
    125  C          5.5610    1.2880   22.7740 C.2   218  TRP218      0.2620
    126  O          5.5960    0.1110   22.4760 O.2   218  TRP218     -0.2715
    127  CB         4.7500    3.3070   21.5230 C.3   218  TRP218      0.0590
    128  CG         3.5700    2.6560   20.7610 C.ar  218  TRP218      0.0006
    129  CD1        3.4910    2.4470   19.4160 C.ar  218  TRP218      0.0946
    130  CD2        2.4110    2.2010   21.3380 C.ar  218  TRP218      0.0152
    131  NE1        2.3020    1.8850   19.2580 N.ar  218  TRP218     -0.2442
    132  CE2        1.5710    1.6950   20.3470 C.ar  218  TRP218      0.0810
    133  CE3        1.9890    2.1760   22.6690 C.ar  218  TRP218      0.0012
    134  CZ2        0.3190    1.1740   20.6850 C.ar  218  TRP218      0.0191
    135  CZ3        0.7340    1.6500   23.0000 C.ar  218  TRP218      0.0001
    136  CH2       -0.0940    1.1550   22.0070 C.ar  218  TRP218      0.0015
    137  N          5.1820    1.7260   23.9220 N.am  219  GLY219     -0.1954
    138  CA         4.7250    0.8080   25.0000 C.3   219  GLY219      0.1869
    139  C          4.4190    1.6690   26.2310 C.2   219  GLY219      0.2309
    140  O          4.9760    2.7500   26.3500 O.2   219  GLY219     -0.2863
    141  N          5.0920    2.3250   29.8340 N.3   221  GLY221     -0.1210
    142  CA         6.0860    1.8800   30.8420 C.3   221  GLY221      0.1956
    143  C          7.0230    0.9180   30.1360 C.2   221  GLY221      0.2612
    144  O          7.0440    0.9130   28.9220 O.2   221  GLY221     -0.2717
    145  N          7.7510    0.1700   30.9000 N.am  222  CYS222     -0.1970
    146  CA         8.7140   -0.8210   30.3780 C.3   222  CYS222      0.1712
    147  C          8.6380   -2.0130   31.3270 C.2   222  CYS222      0.2296
    148  O          8.7720   -1.8690   32.5330 O.2   222  CYS222     -0.2864
    149  CB        10.1180   -0.2060   30.3890 C.3   222  CYS222      0.0983
    150  SG        10.2480    1.3760   29.5360 S.3   222  CYS222     -0.0798
    151  N          5.2750   -4.5730   24.3910 N.3   229  GLY229     -0.1210
    152  CA         5.9390   -3.5050   23.6150 C.3   229  GLY229      0.1956
    153  C          5.2010   -3.6310   22.3010 C.2   229  GLY229      0.2612
    154  O          4.7890   -4.7290   21.9300 O.2   229  GLY229     -0.2717
    155  N          5.0430   -2.5190   21.6360 N.am  230  VAL230     -0.1965
    156  CA         4.3420   -2.4770   20.3250 C.3   230  VAL230      0.1727
    157  C          5.4230   -2.0750   19.3020 C.2   230  VAL230      0.2616
    158  O          6.2550   -1.1990   19.5470 O.2   230  VAL230     -0.2715
    159  CB         3.1970   -1.4450   20.4250 C.3   230  VAL230      0.0290
    160  CG1        2.2820   -1.6150   19.1970 C.3   230  VAL230      0.0023
    161  CG2        2.4040   -1.7250   21.7360 C.3   230  VAL230      0.0023
    162  N          5.3530   -2.7350   18.1900 N.am  231  TYR231     -0.1974
    163  CA         6.3010   -2.5360   17.0780 C.3   231  TYR231      0.1639
    164  C          5.5860   -2.2810   15.7520 C.2   231  TYR231      0.2290
    165  O          4.4690   -2.7450   15.6070 O.2   231  TYR231     -0.2864
    166  CB         7.1620   -3.8270   16.9320 C.3   231  TYR231      0.0560
    167  CG         7.8550   -4.2440   18.2070 C.ar  231  TYR231     -0.0198
    168  CD1        7.1510   -4.7730   19.2870 C.ar  231  TYR231     -0.0009
    169  CD2        9.2150   -4.0770   18.3140 C.ar  231  TYR231     -0.0009
    170  CE1        7.7990   -5.1220   20.4620 C.ar  231  TYR231      0.0417
    171  CE2        9.8600   -4.4210   19.4660 C.ar  231  TYR231      0.0417
    172  CZ         9.1820   -4.9380   20.5490 C.ar  231  TYR231      0.1957
    173  OH         9.9180   -5.2250   21.6710 O.3   231  TYR231     -0.2866
@<TRIPOS>BOND
     1    26    27    1
     2    42    43    1
     3    44    45    2
     4    44    43    1
     5   165   164    2
     6    38    39    2
     7    38    37    1
     8    52    53    2
     9    52    51    1
    10   164   163    1
    11    27    28    1
    12    27    30    1
    13    36    28   am
    14    36    37    1
    15    40    37    1
    16    40    41    1
    17    43    46    1
    18    28    29    2
    19    41    25    1
    20    51    54    1
    21    51    50    1
    22    30    31    1
    23   166   163    1
    24   166   167    1
    25    54    55    1
    26   110   111    1
    27   163   162    1
    28    23    22    2
    29   122   121    1
    30    24    25    1
    31    24    21    1
    32    18    17    1
    33   121   118    1
    34    46    47    1
    35    22    21    1
    36   113   112    2
    37    49    47   ar
    38    32    31   ar
    39    32    34   ar
    40    31    33   ar
    41    19    17    1
    42    17    14    1
    43    55    56   ar
    44    55    57   ar
    45    56    58   ar
    46   112   111    1
    47   112   117   am
    48   162   157   am
    49   167   169   ar
    50   167   168   ar
    51    47    48   ar
    52    21    20    1
    53   169   171   ar
    54   111   114    1
    55   106   107    2
    56   106   105    1
    57   118   117    1
    58   118   119    1
    59    20    15   am
    60    34    35   ar
    61    33    35   ar
    62   160   159    1
    63    57    59   ar
    64   131   129   ar
    65   131   132   ar
    66   114   116    1
    67   114   115    1
    68    58    59   ar
    69   168   170   ar
    70   157   158    2
    71   157   156    1
    72    14    15    1
    73    14    13    1
    74    15    16    2
    75   129   128   ar
    76    12    11    1
    77   171   172   ar
    78     9    11   ar
    79     9     7   ar
    80   105   108    1
    81   105   104    1
    82    13     3   am
    83   119   120    2
    84   119   123   am
    85   108   109    1
    86    11    10   ar
    87     7     6   ar
    88   156   159    1
    89   156   155    1
    90   132   134   ar
    91   132   130   ar
    92   159   161    1
    93   170   172   ar
    94   123   124    1
    95   172   173    1
    96   134   136   ar
    97   128   130   ar
    98   128   127    1
    99     3     2    1
   100     3     4    2
   101    10     8   ar
   102     2     1    1
   103     2     5    1
   104     6     8   ar
   105     6     5    1
   106   130   133   ar
   107   127   124    1
   108   155   153   am
   109   124   125    1
   110   154   153    2
   111   136   135   ar
   112   103   102    2
   113   153   152    1
   114   126   125    2
   115   133   135   ar
   116   125   137   am
   117   102   101    1
   118   152   151    1
   119    84    81    1
   120   137   138    1
   121   101   100    1
   122   100    93   am
   123   138   139    1
   124    88    87    2
   125    69    70   ar
   126    69    67   ar
   127    71    70    1
   128    81    80    1
   129    81    82    1
   130    93    92    1
   131    93    94    2
   132    70    68   ar
   133    67    65   ar
   134    80    74   am
   135    92    91    1
   136    92    95    1
   137    85    82   am
   138    85    86    1
   139    78    77   ar
   140    87    91   am
   141    87    86    1
   142    82    83    2
   143   139   140    2
   144    96    95    1
   145    96    97    1
   146    68    66   ar
   147    65    66   ar
   148    65    64    1
   149    74    75    2
   150    74    73    1
   151    86    89    1
   152    98    97    2
   153    64    61    1
   154    77    79   ar
   155    77    76    1
   156    97    99   am
   157    73    76    1
   158    73    72    1
   159    89    90    1
   160    61    62    1
   161    61    60    1
   162   144   143    2
   163    62    63    2
   164   150    90    1
   165   150   149    1
   166   141   142    1
   167   143   142    1
   168   143   145   am
   169   146   149    1
   170   146   145    1
   171   146   147    1
   172   147   148    2
