@<TRIPOS>MOLECULE
tmp/1o5dB00.pdb
 170 170 0 0 0
SMALL
GASTEIGER

@<TRIPOS>ATOM
      1  N          1.1370    1.4600   51.4590 N.3    25  LEU25      -0.1231
      2  CA         2.2660    1.4280   52.4320 C.3    25  LEU25       0.1693
      3  C          3.5200    1.7640   51.5900 C.2    25  LEU25       0.2592
      4  O          3.9770    2.8930   51.5880 O.2    25  LEU25      -0.2718
      5  CB         2.3420   -0.0080   53.0610 C.3    25  LEU25       0.0284
      6  CG         3.5570   -0.1480   54.0380 C.3    25  LEU25       0.0019
      7  CD1        3.3070    0.6500   55.3230 C.3    25  LEU25       0.0001
      8  CD2        3.8230   -1.6030   54.4290 C.3    25  LEU25       0.0001
      9  N          4.0290    0.7870   50.8930 N.am   26  CYS26      -0.1970
     10  CA         5.2370    0.9540   50.0360 C.3    26  CYS26       0.1712
     11  C          5.0410    0.1210   48.7850 C.2    26  CYS26       0.2296
     12  O          3.9750   -0.4410   48.5790 O.2    26  CYS26      -0.2864
     13  CB         6.4690    0.4780   50.8310 C.3    26  CYS26       0.0983
     14  SG         7.1660    1.6270   52.0450 S.3    26  CYS26      -0.0798
     15  N         12.4320   -0.0270   56.1680 N.3    41  HIS41      -0.1226
     16  CA        11.8470    1.0990   56.9720 C.3    41  HIS41       0.1752
     17  C         10.3440    1.1790   56.7810 C.2    41  HIS41       0.2596
     18  O          9.6860    1.7780   57.5960 O.2    41  HIS41      -0.2718
     19  CB        12.5210    2.5020   56.5950 C.3    41  HIS41       0.0759
     20  CG        12.1310    3.0340   55.2260 C.ar   41  HIS41       0.0818
     21  ND1       12.7790    2.8810   54.1070 N.ar   41  HIS41      -0.2268
     22  CD2       11.0060    3.7700   54.9210 C.ar   41  HIS41       0.1154
     23  CE1       12.1290    3.4660   53.1430 C.ar   41  HIS41       0.1986
     24  NE2       11.0560    4.0080   53.6340 N.ar   41  HIS41      -0.2212
     25  N          9.8370    0.5900   55.7390 N.am   42  CYS42      -0.1970
     26  CA         8.3730    0.6220   55.5000 C.3    42  CYS42       0.1712
     27  C          7.6210   -0.0540   56.6480 C.2    42  CYS42       0.2296
     28  O          6.4320    0.1450   56.8010 O.2    42  CYS42      -0.2864
     29  CB         8.0750   -0.1040   54.2670 C.3    42  CYS42       0.0983
     30  SG         8.7510    0.6010   52.7630 S.3    42  CYS42      -0.0798
     31  N          8.6150    0.2300   59.8540 N.3    44  ASP44      -0.1225
     32  CA         9.0480    0.7990   61.1600 C.3    44  ASP44       0.1805
     33  C          7.8750    0.9800   62.0820 C.2    44  ASP44       0.2597
     34  O          7.9820    0.7200   63.2650 O.2    44  ASP44      -0.2718
     35  CB         9.7250    2.1970   61.0170 C.3    44  ASP44       0.1424
     36  CG        11.2200    2.0940   60.6400 C.2    44  ASP44       0.3668
     37  OD1       11.8690    1.2480   61.2260 O.co2  44  ASP44      -0.2456
     38  OD2       11.6440    2.8680   59.8000 O.co2  44  ASP44      -0.2456
     39  N          6.7880    1.4160   61.5180 N.am   45  LYS45      -0.1979
     40  CA         5.5600    1.6540   62.3250 C.3    45  LYS45       0.1596
     41  C          4.3790    0.7720   61.9080 C.2    45  LYS45       0.2287
     42  O          3.3840    1.2830   61.4260 O.2    45  LYS45      -0.2864
     43  CB         5.2300    3.1710   62.1820 C.3    45  LYS45       0.0298
     44  CG         6.4960    3.9870   62.5890 C.3    45  LYS45       0.0038
     45  CD         6.2300    5.5030   62.5870 C.3    45  LYS45       0.0206
     46  CE         6.0280    6.0320   61.1620 C.3    45  LYS45       0.1093
     47  NZ         5.7780    7.5050   61.2110 N.3    45  LYS45      -0.1314
     48  N         13.3070   11.6960   39.4520 N.3   186  ASP186     -0.1225
     49  CA        13.7530   10.9850   40.6950 C.3   186  ASP186      0.1805
     50  C         12.6060   10.0680   41.1800 C.2   186  ASP186      0.2598
     51  O         11.5140   10.1070   40.6300 O.2   186  ASP186     -0.2718
     52  CB        14.0630   12.0150   41.8130 C.3   186  ASP186      0.1424
     53  CG        14.7490   11.4000   43.0410 C.2   186  ASP186      0.3668
     54  OD1       15.3810   10.3680   42.8790 O.co2 186  ASP186     -0.2456
     55  OD2       14.6210   12.0000   44.0990 O.co2 186  ASP186     -0.2456
     56  N         12.8430    9.3070   42.2070 N.am  187  SER187     -0.1938
     57  CA        11.7970    8.4210   42.7570 C.3   187  SER187      0.2055
     58  C         11.3320    9.3310   43.9280 C.2   187  SER187      0.2643
     59  O         11.9580   10.3470   44.1810 O.2   187  SER187     -0.2714
     60  CB        12.4470    7.0280   43.2010 C.3   187  SER187      0.2130
     61  OG        13.5540    7.2640   44.0470 O.3   187  SER187     -0.2179
     62  N         10.2940    8.9680   44.6000 N.am  188  CYS188     -0.1953
     63  CA         9.8110    9.8470   45.7080 C.3   188  CYS188      0.1843
     64  C          9.0970    9.0020   46.7500 C.2   188  CYS188      0.2625
     65  O          9.1450    7.7850   46.7200 O.2   188  CYS188     -0.2714
     66  CB         8.8340   10.9650   45.0710 C.3   188  CYS188      0.0997
     67  SG         8.4950   12.4620   46.0390 S.3   188  CYS188     -0.0797
     68  N          8.4440    9.7070   47.6150 N.am  189  LYS189     -0.1963
     69  CA         7.6620    9.0900   48.7300 C.3   189  LYS189      0.1728
     70  C          6.5670    8.2680   48.0570 C.2   189  LYS189      0.2616
     71  O          5.9950    8.6870   47.0570 O.2   189  LYS189     -0.2715
     72  CB         7.0390   10.2070   49.5840 C.3   189  LYS189      0.0311
     73  CG         6.3510    9.7240   50.8510 C.3   189  LYS189      0.0038
     74  CD         5.8280   11.0070   51.5460 C.3   189  LYS189      0.0206
     75  CE         5.1590   10.6970   52.8970 C.3   189  LYS189      0.1093
     76  NZ         4.4250   11.9060   53.3700 N.3   189  LYS189     -0.1314
     77  N          6.3150    7.1160   48.6240 N.am  190  GLY190     -0.1955
     78  CA         5.2680    6.2030   48.0710 C.3   190  GLY190      0.1869
     79  C          5.9060    5.1570   47.1710 C.2   190  GLY190      0.2309
     80  O          5.3450    4.0970   46.9440 O.2   190  GLY190     -0.2863
     81  N          9.0680    4.1060   47.7500 N.3   192  SER192     -0.1217
     82  CA         9.9420    3.3760   48.6830 C.3   192  SER192      0.1889
     83  C          9.6590    1.8640   48.6640 C.2   192  SER192      0.2288
     84  O          8.5010    1.5250   48.5720 O.2   192  SER192     -0.2866
     85  CB         9.7080    3.9180   50.0940 C.3   192  SER192      0.2089
     86  OG         9.4360    5.3130   49.9540 O.3   192  SER192     -0.2183
     87  N         14.0720    1.1110   45.9900 N.3   210  VAL210     -0.1231
     88  CA        13.8980    2.5990   46.2200 C.3   210  VAL210      0.1692
     89  C         14.0820    2.7970   47.7130 C.2   210  VAL210      0.2593
     90  O         13.3150    2.2180   48.4630 O.2   210  VAL210     -0.2718
     91  CB        12.4840    2.9530   45.7250 C.3   210  VAL210      0.0266
     92  CG1       12.1720    4.3910   46.0640 C.3   210  VAL210      0.0020
     93  CG2       12.4080    2.8300   44.1720 C.3   210  VAL210      0.0020
     94  N         15.0370    3.5910   48.1400 N.am  211  SER211     -0.1938
     95  CA        15.2430    3.7720   49.6170 C.3   211  SER211      0.2055
     96  C         15.1060    5.1830   50.2720 C.2   211  SER211      0.2643
     97  O         14.3080    5.3560   51.1840 O.2   211  SER211     -0.2714
     98  CB        16.6550    3.1510   49.8600 C.3   211  SER211      0.2130
     99  OG        16.8750    2.9760   51.2650 O.3   211  SER211     -0.2179
    100  N         15.8690    6.1510   49.8440 N.am  212  TRP212     -0.1959
    101  CA        15.7710    7.5220   50.4520 C.3   212  TRP212      0.1771
    102  C         16.4140    8.5860   49.5710 C.2   212  TRP212      0.2620
    103  O         16.8230    8.3160   48.4540 O.2   212  TRP212     -0.2715
    104  CB        16.4560    7.5640   51.8350 C.3   212  TRP212      0.0590
    105  CG        17.9570    7.2540   51.7820 C.ar  212  TRP212      0.0006
    106  CD1       18.4590    6.0020   51.6940 C.ar  212  TRP212      0.0946
    107  CD2       18.9800    8.1450   51.8200 C.ar  212  TRP212      0.0152
    108  NE1       19.7630    6.2040   51.6840 N.ar  212  TRP212     -0.2442
    109  CE2       20.1870    7.4490   51.7560 C.ar  212  TRP212      0.0810
    110  CE3       19.0020    9.5350   51.8980 C.ar  212  TRP212      0.0012
    111  CZ2       21.4060    8.1180   51.7690 C.ar  212  TRP212      0.0191
    112  CZ3       20.2190   10.2160   51.9090 C.ar  212  TRP212      0.0001
    113  CH2       21.4220    9.5050   51.8440 C.ar  212  TRP212      0.0015
    114  N         16.4810    9.7880   50.0710 N.am  213  GLY213     -0.1940
    115  CA        17.0950   10.9140   49.3060 C.3   213  GLY213      0.2014
    116  C         16.7400   12.2400   49.9690 C.2   213  GLY213      0.2639
    117  O         16.0070   12.2320   50.9360 O.2   213  GLY213     -0.2714
    118  N         17.2520   13.3270   49.4590 N.am  214  GLN214     -0.1963
    119  CA        16.9630   14.6940   50.0270 C.3   214  GLN214      0.1733
    120  C         15.7490   15.0450   49.2310 C.2   214  GLN214      0.2617
    121  O         15.8950   15.1830   48.0200 O.2   214  GLN214     -0.2715
    122  CB        18.0480   15.7210   49.6870 C.3   214  GLN214      0.0408
    123  CG        18.9900   15.9300   50.8690 C.3   214  GLN214      0.0908
    124  CD        18.2390   16.7030   51.9480 C.2   214  GLN214      0.2608
    125  OE1       17.4420   17.5820   51.6560 O.2   214  GLN214     -0.2717
    126  NE2       18.4570   16.4170   53.1950 N.am  214  GLN214     -0.0878
    127  N         14.6380   15.1540   49.9130 N.am  215  GLY215     -0.1940
    128  CA        13.3400   15.4960   49.2290 C.3   215  GLY215      0.2014
    129  C         13.1580   14.5440   48.0490 C.2   215  GLY215      0.2639
    130  O         13.3900   13.3500   48.2050 O.2   215  GLY215     -0.2714
    131  N         12.7520   15.0520   46.9270 N.am  216  CYS216     -0.1967
    132  CA        12.5660   14.1980   45.7450 C.3   216  CYS216      0.1712
    133  C         12.9090   15.1760   44.6720 C.2   216  CYS216      0.2296
    134  O         12.3370   16.2450   44.6480 O.2   216  CYS216     -0.2864
    135  CB        11.0890   13.7310   45.5560 C.3   216  CYS216      0.0983
    136  SG        10.2600   12.9370   46.9450 S.3   216  CYS216     -0.0798
    137  N         20.7370   13.1040   44.3550 N.3   222  PHE222     -0.1227
    138  CA        20.4030   11.8710   43.5640 C.3   222  PHE222      0.1736
    139  C         19.5350   10.9620   44.4350 C.2   222  PHE222      0.2596
    140  O         19.4350   11.1490   45.6390 O.2   222  PHE222     -0.2718
    141  CB        21.6880   11.0650   43.2100 C.3   222  PHE222      0.0547
    142  CG        22.5400   11.8260   42.2140 C.ar  222  PHE222     -0.0202
    143  CD1       22.3340   11.6600   40.8720 C.ar  222  PHE222     -0.0042
    144  CD2       23.5020   12.7040   42.6630 C.ar  222  PHE222     -0.0042
    145  CE1       23.0690   12.3560   39.9710 C.ar  222  PHE222     -0.0003
    146  CE2       24.2290   13.3970   41.7540 C.ar  222  PHE222     -0.0003
    147  CZ        24.0170   13.2270   40.4130 C.ar  222  PHE222     -0.0000
    148  N         18.9380    9.9830   43.8350 N.am  223  GLY223     -0.1942
    149  CA        18.0990    9.0790   44.6790 C.3   223  GLY223      0.2014
    150  C         19.0770    7.9790   45.1590 C.2   223  GLY223      0.2639
    151  O         19.9680    7.6500   44.3890 O.2   223  GLY223     -0.2714
    152  N         18.8680    7.4840   46.3610 N.am  224  VAL224     -0.1963
    153  CA        19.7140    6.4190   46.9650 C.3   224  VAL224      0.1727
    154  C         18.8570    5.0920   47.0030 C.2   224  VAL224      0.2616
    155  O         17.7280    5.0760   47.4920 O.2   224  VAL224     -0.2715
    156  CB        20.1160    6.8820   48.3890 C.3   224  VAL224      0.0290
    157  CG1       21.1660    5.9210   48.9800 C.3   224  VAL224      0.0023
    158  CG2       20.6660    8.3410   48.3080 C.3   224  VAL224      0.0023
    159  N         19.4620    4.0410   46.4920 N.am  225  TYR225     -0.1974
    160  CA        18.8660    2.6640   46.3930 C.3   225  TYR225      0.1639
    161  C         19.5850    1.6210   47.2240 C.2   225  TYR225      0.2290
    162  O         20.7830    1.7470   47.3820 O.2   225  TYR225     -0.2864
    163  CB        18.9160    2.2540   44.9540 C.3   225  TYR225      0.0560
    164  CG        18.0790    3.2730   44.2210 C.ar  225  TYR225     -0.0198
    165  CD1       18.5700    4.5330   43.9030 C.ar  225  TYR225     -0.0009
    166  CD2       16.7790    2.9590   43.8940 C.ar  225  TYR225     -0.0009
    167  CE1       17.7660    5.4560   43.2740 C.ar  225  TYR225      0.0417
    168  CE2       15.9830    3.8810   43.2690 C.ar  225  TYR225      0.0417
    169  CZ        16.4560    5.1300   42.9550 C.ar  225  TYR225      0.1957
    170  OH        15.5900    6.0060   42.3410 O.3   225  TYR225     -0.2866
@<TRIPOS>BOND
     1    48    49    1
     2   145   147   ar
     3   145   143   ar
     4   147   146   ar
     5    51    50    2
     6    49    50    1
     7    49    52    1
     8   143   142   ar
     9    50    56   am
    10   146   144   ar
    11    52    53    1
    12    56    57    1
    13   142   144   ar
    14   142   141    1
    15   170   169    1
    16    57    60    1
    17    57    58    1
    18    54    53   ar
    19   169   168   ar
    20   169   167   ar
    21    53    55   ar
    22    60    61    1
    23   141   138    1
    24   168   166   ar
    25   167   165   ar
    26   138   137    1
    27   138   139    1
    28   148   139   am
    29   148   149    1
    30   166   164   ar
    31   165   164   ar
    32    58    59    2
    33    58    62   am
    34    93    91    1
    35   164   163    1
    36   151   150    2
    37   139   140    2
    38    62    63    1
    39   134   133    2
    40   133   132    1
    41   149   150    1
    42   163   160    1
    43    66    63    1
    44    66    67    1
    45   150   152   am
    46   135   132    1
    47   135   136    1
    48    63    64    1
    49    91    92    1
    50    91    88    1
    51   132   131    1
    52    87    88    1
    53    67   136    1
    54    88    89    1
    55   152   153    1
    56   160   159    1
    57   160   161    1
    58   159   154   am
    59    65    64    2
    60    64    68   am
    61   131   129   am
    62    80    79    2
    63   153   154    1
    64   153   156    1
    65   154   155    2
    66    71    70    2
    67    79    78    1
    68   161   162    2
    69    68    69    1
    70    89    94   am
    71    89    90    2
    72    81    82    1
    73   121   120    2
    74   129   130    2
    75   129   128    1
    76    70    77   am
    77    70    69    1
    78    78    77    1
    79    94    95    1
    80   158   156    1
    81   156   157    1
    82   103   102    2
    83    84    83    2
    84    12    11    2
    85    83    82    1
    86    82    85    1
    87    69    72    1
    88    11    10    1
    89   128   127    1
    90   120   127   am
    91   120   119    1
    92   115   116    1
    93   115   114    1
    94   118   116   am
    95   118   119    1
    96   102   114   am
    97   102   101    1
    98    72    73    1
    99    95    98    1
   100    95    96    1
   101   122   119    1
   102   122   123    1
   103   100    96   am
   104   100   101    1
   105    98    99    1
   106    86    85    1
   107   116   117    2
   108    10    13    1
   109    10     9    1
   110    96    97    2
   111   101   104    1
   112    13    14    1
   113    73    74    1
   114   123   124    1
   115     9     3   am
   116     1     2    1
   117    74    75    1
   118     4     3    2
   119     3     2    1
   120   125   124    2
   121   108   106   ar
   122   108   109   ar
   123   106   105   ar
   124   109   111   ar
   125   109   107   ar
   126   111   113   ar
   127   105   107   ar
   128   105   104    1
   129   107   110   ar
   130   113   112   ar
   131   110   112   ar
   132   124   126   am
   133    14    30    1
   134     2     5    1
   135    30    29    1
   136    75    76    1
   137     5     6    1
   138    23    24   ar
   139    23    21   ar
   140    24    22   ar
   141     6     8    1
   142     6     7    1
   143    21    20   ar
   144    29    26    1
   145    22    20   ar
   146    20    19    1
   147    26    25    1
   148    26    27    1
   149    25    17   am
   150    15    16    1
   151    19    16    1
   152    27    28    2
   153    17    16    1
   154    17    18    2
   155    38    36   ar
   156    31    32    1
   157    36    35    1
   158    36    37   ar
   159    35    32    1
   160    32    33    1
   161    46    47    1
   162    46    45    1
   163    42    41    2
   164    39    33   am
   165    39    40    1
   166    41    40    1
   167    33    34    2
   168    43    40    1
   169    43    44    1
   170    45    44    1
