@<TRIPOS>MOLECULE
tmp/1o5eB00.pdb
 174 175 0 0 0
SMALL
GASTEIGER

@<TRIPOS>ATOM
      1  N         15.7080    7.1240   28.3790 N.3    25  LEU25      -0.1231
      2  CA        15.4080    5.8380   29.0810 C.3    25  LEU25       0.1693
      3  C         14.7210    4.8150   28.1690 C.2    25  LEU25       0.2592
      4  O         15.0910    3.6510   28.1500 O.2    25  LEU25      -0.2718
      5  CB        14.4600    6.0850   30.3070 C.3    25  LEU25       0.0284
      6  CG        15.2310    6.1710   31.6500 C.3    25  LEU25       0.0019
      7  CD1       16.2190    7.3830   31.7270 C.3    25  LEU25       0.0001
      8  CD2       14.1680    6.2540   32.7400 C.3    25  LEU25       0.0001
      9  N         13.7470    5.2940   27.4620 N.am   26  CYS26      -0.1970
     10  CA        12.9830    4.4240   26.5460 C.3    26  CYS26       0.1712
     11  C         12.6810    5.0460   25.2370 C.2    26  CYS26       0.2296
     12  O         12.9080    6.2200   25.0240 O.2    26  CYS26      -0.2864
     13  CB        11.7170    4.0720   27.2400 C.3    26  CYS26       0.0983
     14  SG        11.8480    2.8950   28.5900 S.3    26  CYS26      -0.0798
     15  N          7.0390   -0.6810   31.7840 N.3    41  HIS41      -0.1226
     16  CA         8.2460   -0.7340   32.6760 C.3    41  HIS41       0.1752
     17  C          9.1490    0.4540   32.6100 C.2    41  HIS41       0.2596
     18  O         10.1240    0.4710   33.3340 O.2    41  HIS41      -0.2718
     19  CB         9.1450   -2.0230   32.4090 C.3    41  HIS41       0.0759
     20  CG        10.1990   -2.1050   31.2430 C.ar   41  HIS41       0.0818
     21  ND1       10.0350   -2.7190   30.0940 N.ar   41  HIS41      -0.2268
     22  CD2       11.5010   -1.5930   31.1910 C.ar   41  HIS41       0.1154
     23  CE1       11.1030   -2.6200   29.3830 C.ar   41  HIS41       0.1986
     24  NE2       11.9910   -1.9470   30.0300 N.ar   41  HIS41      -0.2212
     25  N          8.8170    1.3930   31.7760 N.am   42  CYS42      -0.1970
     26  CA         9.6680    2.6000   31.6700 C.3    42  CYS42       0.1712
     27  C          9.3170    3.5760   32.7940 C.2    42  CYS42       0.2296
     28  O         10.0740    4.4860   33.0210 O.2    42  CYS42      -0.2864
     29  CB         9.4340    3.2700   30.3010 C.3    42  CYS42       0.0983
     30  SG         9.9350    2.3200   28.8510 S.3    42  CYS42      -0.0798
     31  N          8.8340    3.1430   36.4520 N.3    44  PRO44      -0.2116
     32  CA         8.9480    2.5620   37.7990 C.3    44  PRO44       0.1372
     33  C          8.7120    3.6790   38.8110 C.2    44  PRO44       0.2244
     34  O          8.7640    4.8340   38.4410 O.2    44  PRO44      -0.2868
     35  CB        10.3460    2.0010   37.8270 C.3    44  PRO44       0.0268
     36  CG        11.1330    3.0020   36.9130 C.3    44  PRO44       0.0207
     37  CD        10.1620    3.1880   35.7610 C.3    44  PRO44       0.0892
     38  N         25.7890   -4.8240   24.9850 N.3   132  TYR132     -0.1241
     39  CA        25.2530   -4.8650   26.3460 C.3   132  TYR132      0.1605
     40  C         26.1140   -4.0270   27.3000 C.2   132  TYR132      0.2264
     41  O         25.5780   -3.2360   28.0500 O.2   132  TYR132     -0.2867
     42  CB        25.2190   -6.2890   26.8240 C.3   132  TYR132      0.0534
     43  CG        24.4570   -6.2430   28.1130 C.ar  132  TYR132     -0.0201
     44  CD1       23.0850   -6.4230   28.1730 C.ar  132  TYR132     -0.0009
     45  CD2       25.1590   -5.9920   29.2500 C.ar  132  TYR132     -0.0009
     46  CE1       22.4260   -6.3470   29.3660 C.ar  132  TYR132      0.0417
     47  CE2       24.5120   -5.9140   30.4450 C.ar  132  TYR132      0.0417
     48  CZ        23.1500   -6.0880   30.5170 C.ar  132  TYR132      0.1957
     49  OH        22.5510   -5.9900   31.7560 O.3   132  TYR132     -0.2866
     50  N         19.9190   -7.6530   17.6460 N.3   178  ASP178     -0.1225
     51  CA        18.8740   -7.6430   18.6990 C.3   178  ASP178      0.1805
     52  C         18.7110   -6.2090   19.2710 C.2   178  ASP178      0.2598
     53  O         19.4680   -5.2960   19.0000 O.2   178  ASP178     -0.2718
     54  CB        19.3190   -8.6480   19.8010 C.3   178  ASP178      0.1424
     55  CG        18.2590   -8.9700   20.9170 C.2   178  ASP178      0.3668
     56  OD1       17.0650   -8.8180   20.7050 O.co2 178  ASP178     -0.2456
     57  OD2       18.6990   -9.3850   21.9780 O.co2 178  ASP178     -0.2456
     58  N         17.7060   -6.0640   20.0730 N.am  179  ALA179     -0.1966
     59  CA        17.3780   -4.7930   20.7370 C.3   179  ALA179      0.1728
     60  C         18.1350   -4.8820   22.0530 C.2   179  ALA179      0.2616
     61  O         18.6090   -5.9500   22.3880 O.2   179  ALA179     -0.2715
     62  CB        15.8590   -4.7170   21.0060 C.3   179  ALA179      0.0334
     63  N         18.2370   -3.8130   22.7770 N.am  180  CYS180     -0.1954
     64  CA        18.9640   -3.8870   24.0420 C.3   180  CYS180      0.1843
     65  C         18.4470   -2.7530   24.9180 C.2   180  CYS180      0.2625
     66  O         17.5140   -2.0570   24.5650 O.2   180  CYS180     -0.2714
     67  CB        20.4900   -3.7790   23.6980 C.3   180  CYS180      0.0997
     68  SG        21.6650   -4.4090   24.9280 S.3   180  CYS180     -0.0797
     69  N         19.0900   -2.6270   26.0290 N.am  181  GLN181     -0.1963
     70  CA        18.7890   -1.5930   27.0490 C.3   181  GLN181      0.1733
     71  C         18.6830   -0.1840   26.3880 C.2   181  GLN181      0.2616
     72  O         19.5920    0.2930   25.7340 O.2   181  GLN181     -0.2715
     73  CB        19.9080   -1.6340   28.0400 C.3   181  GLN181      0.0408
     74  CG        19.5270   -0.8220   29.2420 C.3   181  GLN181      0.0908
     75  CD        20.6570   -0.9230   30.2720 C.2   181  GLN181      0.2608
     76  OE1       20.6010   -0.2210   31.2570 O.2   181  GLN181     -0.2717
     77  NE2       21.6700   -1.7410   30.1280 N.am  181  GLN181     -0.0878
     78  N         17.5700    0.4600   26.5680 N.am  182  GLY182     -0.1955
     79  CA        17.3760    1.8230   25.9680 C.3   182  GLY182      0.1869
     80  C         16.4440    1.7490   24.7560 C.2   182  GLY182      0.2309
     81  O         15.9270    2.7560   24.2800 O.2   182  GLY182     -0.2863
     82  N         13.8650   -0.3300   24.8860 N.3   184  SER184     -0.1217
     83  CA        12.5630   -0.6710   25.5180 C.3   184  SER184      0.1889
     84  C         11.4990    0.3940   25.2410 C.2   184  SER184      0.2288
     85  O         11.8220    1.5600   25.2670 O.2   184  SER184     -0.2866
     86  CB        12.6610   -0.7560   27.0470 C.3   184  SER184      0.2089
     87  OG        13.3740   -1.9400   27.4430 O.3   184  SER184     -0.2183
     88  N          9.1630   -3.1520   22.1640 N.3   206  VAL206     -0.1231
     89  CA        10.4190   -3.7430   22.7150 C.3   206  VAL206      0.1692
     90  C         10.2070   -3.9140   24.2240 C.2   206  VAL206      0.2593
     91  O         10.0540   -2.9140   24.9140 O.2   206  VAL206     -0.2718
     92  CB        11.5400   -2.7760   22.4260 C.3   206  VAL206      0.0266
     93  CG1       12.8180   -3.3280   22.9950 C.3   206  VAL206      0.0020
     94  CG2       11.7130   -2.6100   20.9020 C.3   206  VAL206      0.0020
     95  N         10.2130   -5.1250   24.7310 N.am  207  SER207     -0.1938
     96  CA         9.9940   -5.3120   26.1970 C.3   207  SER207      0.2055
     97  C         11.1720   -5.9500   26.9920 C.2   207  SER207      0.2643
     98  O         11.6230   -5.3380   27.9510 O.2   207  SER207     -0.2714
     99  CB         8.6550   -6.1400   26.2930 C.3   207  SER207      0.2130
    100  OG         8.3570   -6.3500   27.6760 O.3   207  SER207     -0.2179
    101  N         11.6540   -7.1140   26.6520 N.am  208  TRP208     -0.1959
    102  CA        12.7710   -7.6820   27.4570 C.3   208  TRP208      0.1771
    103  C         13.5280   -8.8380   26.7530 C.2   208  TRP208      0.2620
    104  O         13.2780   -9.2610   25.6380 O.2   208  TRP208     -0.2715
    105  CB        12.1860   -8.1730   28.8500 C.3   208  TRP208      0.0590
    106  CG        11.1250   -9.2910   28.7040 C.ar  208  TRP208      0.0006
    107  CD1        9.8250   -9.0710   28.4020 C.ar  208  TRP208      0.0946
    108  CD2       11.3150  -10.6470   28.8310 C.ar  208  TRP208      0.0152
    109  NE1        9.2970  -10.2730   28.3570 N.ar  208  TRP208     -0.2442
    110  CE2       10.0950  -11.3080   28.6030 C.ar  208  TRP208      0.0810
    111  CE3       12.4580  -11.4210   29.1350 C.ar  208  TRP208      0.0012
    112  CZ2       10.0400  -12.7150   28.6730 C.ar  208  TRP208      0.0191
    113  CZ3       12.3980  -12.8200   29.2040 C.ar  208  TRP208      0.0001
    114  CH2       11.1890  -13.4610   28.9760 C.ar  208  TRP208      0.0015
    115  N         14.4860   -9.3350   27.4530 N.am  209  GLY209     -0.1940
    116  CA        15.3080  -10.4580   26.9340 C.3   209  GLY209      0.2014
    117  C         16.4210  -10.7270   27.9500 C.2   209  GLY209      0.2640
    118  O         16.5480   -9.9800   28.9130 O.2   209  GLY209     -0.2714
    119  N         17.1740  -11.7650   27.7190 N.am  210  THR210     -0.1936
    120  CA        18.3090  -12.1290   28.6230 C.3   210  THR210      0.2028
    121  C         19.5110  -11.6040   27.8280 C.2   210  THR210      0.2643
    122  O         19.7590  -12.0910   26.7320 O.2   210  THR210     -0.2714
    123  CB        18.3640  -13.6930   28.8160 C.3   210  THR210      0.1808
    124  OG1       17.2690  -13.9340   29.6900 O.3   210  THR210     -0.2208
    125  CG2       19.5800  -14.1800   29.6100 C.3   210  THR210      0.0379
    126  N         20.1880  -10.6440   28.4230 N.am  211  GLY211     -0.1939
    127  CA        21.3700  -10.0010   27.8090 C.3   211  GLY211      0.2014
    128  C         20.8890   -9.4550   26.4680 C.2   211  GLY211      0.2639
    129  O         19.7090   -9.1420   26.2930 O.2   211  GLY211     -0.2714
    130  N         21.8020   -9.3470   25.5540 N.am  212  CYS212     -0.1967
    131  CA        21.4550   -8.8400   24.2250 C.3   212  CYS212      0.1712
    132  C         22.2780   -9.5180   23.1730 C.2   212  CYS212      0.2296
    133  O         23.4620   -9.6960   23.3560 O.2   212  CYS212     -0.2864
    134  CB        21.7250   -7.3290   24.1310 C.3   212  CYS212      0.0983
    135  SG        20.9390   -6.2610   25.3550 S.3   212  CYS212     -0.0798
    136  N         18.5020  -16.5450   22.8290 N.3   217  LYS217     -0.1231
    137  CA        17.8720  -15.5960   23.8300 C.3   217  LYS217      0.1678
    138  C         17.4550  -14.3340   22.9950 C.2   217  LYS217      0.2434
    139  O         18.0010  -13.2440   23.1160 O.2   217  LYS217     -0.2733
    140  CB        18.8760  -15.1770   24.9460 C.3   217  LYS217      0.0284
    141  CG        19.2350  -16.4020   25.8000 C.3   217  LYS217      0.0035
    142  CD        17.9680  -16.9260   26.5730 C.3   217  LYS217      0.0206
    143  CE        18.2860  -18.2550   27.2880 C.3   217  LYS217      0.1093
    144  NZ        18.5320  -19.3440   26.2820 N.3   217  LYS217     -0.1314
    145  N         16.4820  -14.5300   22.1360 N.am  218  PRO218     -0.2718
    146  CA        15.9980  -13.4800   21.1800 C.3   218  PRO218      0.1535
    147  C         15.3240  -12.3540   21.9710 C.2   218  PRO218      0.2599
    148  O         15.3090  -12.3870   23.1910 O.2   218  PRO218     -0.2715
    149  CB        15.0170  -14.2170   20.2400 C.3   218  PRO218      0.0310
    150  CG        14.4280  -15.3400   21.1920 C.3   218  PRO218      0.0237
    151  CD        15.6900  -15.8050   21.9720 C.3   218  PRO218      0.0939
    152  N         14.7630  -11.3940   21.2920 N.am  219  GLY219     -0.1941
    153  CA        14.1150  -10.3100   22.0840 C.3   219  GLY219      0.2014
    154  C         12.6480  -10.6500   22.2290 C.2   219  GLY219      0.2639
    155  O         12.1230  -11.3330   21.3640 O.2   219  GLY219     -0.2714
    156  N         12.0690  -10.1610   23.2980 N.am  220  VAL220     -0.1963
    157  CA        10.6250  -10.4090   23.5820 C.3   220  VAL220      0.1727
    158  C          9.8560   -9.0290   23.4680 C.2   220  VAL220      0.2616
    159  O         10.2070   -8.0040   24.0420 O.2   220  VAL220     -0.2715
    160  CB        10.5140  -11.0460   25.0210 C.3   220  VAL220      0.0290
    161  CG1        9.0780  -11.6280   25.1740 C.3   220  VAL220      0.0023
    162  CG2       11.6070  -12.1660   25.2560 C.3   220  VAL220      0.0023
    163  N          8.7990   -9.0860   22.7100 N.am  221  TYR221     -0.1974
    164  CA         7.9520   -7.9190   22.4510 C.3   221  TYR221      0.1639
    165  C          6.5340   -8.1250   22.9510 C.2   221  TYR221      0.2290
    166  O          6.0550   -9.2400   23.0670 O.2   221  TYR221     -0.2864
    167  CB         7.9160   -7.6870   20.9410 C.3   221  TYR221      0.0560
    168  CG         9.3230   -7.4590   20.4060 C.ar  221  TYR221     -0.0198
    169  CD1       10.1970   -8.5280   20.2090 C.ar  221  TYR221     -0.0009
    170  CD2        9.7730   -6.1660   20.1390 C.ar  221  TYR221     -0.0009
    171  CE1       11.4870   -8.3050   19.7690 C.ar  221  TYR221      0.0417
    172  CE2       11.0680   -5.9580   19.6930 C.ar  221  TYR221      0.0417
    173  CZ        11.9460   -7.0160   19.5060 C.ar  221  TYR221      0.1957
    174  OH        13.2340   -6.7450   19.0910 O.3   221  TYR221     -0.2866
@<TRIPOS>BOND
     1    50    51    1
     2    51    52    1
     3    51    54    1
     4    53    52    2
     5   174   173    1
     6    52    58   am
     7   173   172   ar
     8   173   171   ar
     9   172   170   ar
    10   171   169   ar
    11    54    55    1
    12    58    59    1
    13   170   168   ar
    14   169   168   ar
    15   149   146    1
    16   149   150    1
    17   168   167    1
    18    56    55   ar
    19    59    62    1
    20    59    60    1
    21    94    92    1
    22    55    57   ar
    23   167   164    1
    24   146   147    1
    25   146   145    1
    26   150   151    1
    27   152   147   am
    28   152   153    1
    29   155   154    2
    30   147   148    2
    31   151   145    1
    32    60    61    2
    33    60    63   am
    34   153   154    1
    35   145   138   am
    36    88    89    1
    37   154   156   am
    38    92    89    1
    39    92    93    1
    40   164   163    1
    41   164   165    1
    42   163   158   am
    43    89    90    1
    44    63    64    1
    45   136   137    1
    46   165   166    2
    47   138   139    2
    48   138   137    1
    49   132   133    2
    50   132   131    1
    51   156   157    1
    52   158   157    1
    53   158   159    2
    54   157   160    1
    55    67    64    1
    56    67    68    1
    57   137   140    1
    58    64    65    1
    59   134   131    1
    60   134   135    1
    61    90    95   am
    62    90    91    2
    63   131   130    1
    64    81    80    2
    65    66    65    2
    66    95    96    1
    67    80    79    1
    68    82    83    1
    69    65    69   am
    70    68   135    1
    71   140   141    1
    72    38    39    1
    73   160   161    1
    74   160   162    1
    75    12    11    2
    76    11    10    1
    77    84    85    2
    78    84    83    1
    79    83    86    1
    80   130   128   am
    81   104   103    2
    82    72    71    2
    83   141   142    1
    84    79    78    1
    85    69    70    1
    86    96    99    1
    87    96    97    1
    88   144   143    1
    89   129   128    2
    90    99   100    1
    91    39    42    1
    92    39    40    1
    93    71    78   am
    94    71    70    1
    95   128   127    1
    96    10    13    1
    97    10     9    1
    98   142   143    1
    99   101    97   am
   100   101   102    1
   101   122   121    2
   102   103   115   am
   103   103   102    1
   104    42    43    1
   105   116   115    1
   106   116   117    1
   107    97    98    2
   108    86    87    1
   109    70    73    1
   110    13    14    1
   111    40    41    2
   112   102   105    1
   113     9     3   am
   114   119   117   am
   115   119   120    1
   116   127   126    1
   117   121   126   am
   118   121   120    1
   119   117   118    2
   120    73    74    1
   121    43    44   ar
   122    43    45   ar
   123     4     3    2
   124     3     2    1
   125    44    46   ar
   126   109   107   ar
   127   109   110   ar
   128     1     2    1
   129   107   106   ar
   130    14    30    1
   131   110   112   ar
   132   110   108   ar
   133   120   123    1
   134   112   114   ar
   135   106   108   ar
   136   106   105    1
   137   123   125    1
   138   123   124    1
   139   108   111   ar
   140    30    29    1
   141   114   113   ar
   142     2     5    1
   143   111   113   ar
   144    74    75    1
   145    45    47   ar
   146    46    48   ar
   147    23    24   ar
   148    23    21   ar
   149    24    22   ar
   150    21    20   ar
   151    77    75   am
   152    75    76    2
   153    29    26    1
   154     5     6    1
   155    47    48   ar
   156    48    49    1
   157    22    20   ar
   158    20    19    1
   159     6     7    1
   160     6     8    1
   161    26    25    1
   162    26    27    1
   163    25    17   am
   164    15    16    1
   165    19    16    1
   166    17    16    1
   167    17    18    2
   168    27    28    2
   169    37    31    1
   170    37    36    1
   171    31    32    1
   172    36    35    1
   173    32    35    1
   174    32    33    1
   175    34    33    2
