@<TRIPOS>MOLECULE
tmp/1o5fB00.pdb
 166 165 0 0 0
SMALL
GASTEIGER

@<TRIPOS>ATOM
      1  N         15.6240    7.2870   28.2830 N.3    25  LEU25      -0.1231
      2  CA        15.3440    6.0250   29.0150 C.3    25  LEU25       0.1693
      3  C         14.6180    5.0240   28.1510 C.2    25  LEU25       0.2592
      4  O         14.9590    3.8580   28.1290 O.2    25  LEU25      -0.2718
      5  CB        14.4590    6.2950   30.2710 C.3    25  LEU25       0.0284
      6  CG        15.2910    6.5670   31.5430 C.3    25  LEU25       0.0019
      7  CD1       16.1900    7.7950   31.3940 C.3    25  LEU25       0.0001
      8  CD2       14.3270    6.7990   32.7010 C.3    25  LEU25       0.0001
      9  N         13.6290    5.4810   27.4630 N.am   26  CYS26      -0.1970
     10  CA        12.8730    4.5420   26.6010 C.3    26  CYS26       0.1712
     11  C         12.5410    5.1110   25.2510 C.2    26  CYS26       0.2296
     12  O         12.6560    6.2990   25.0030 O.2    26  CYS26      -0.2864
     13  CB        11.6270    4.1900   27.3970 C.3    26  CYS26       0.0983
     14  SG        11.8240    3.0250   28.7660 S.3    26  CYS26      -0.0798
     15  N          6.7980   -0.7070   31.8030 N.3    41  HIS41      -0.1226
     16  CA         7.9760   -0.7230   32.7430 C.3    41  HIS41       0.1752
     17  C          8.8440    0.4870   32.7190 C.2    41  HIS41       0.2596
     18  O          9.7380    0.5690   33.5350 O.2    41  HIS41      -0.2718
     19  CB         8.9170   -1.9890   32.5150 C.3    41  HIS41       0.0759
     20  CG         9.9080   -2.0430   31.3600 C.ar   41  HIS41       0.0818
     21  ND1        9.7760   -2.7040   30.2310 N.ar   41  HIS41      -0.2268
     22  CD2       11.1520   -1.4220   31.2900 C.ar   41  HIS41       0.1154
     23  CE1       10.8220   -2.5320   29.4980 C.ar   41  HIS41       0.1986
     24  NE2       11.6440   -1.7640   30.1360 N.ar   41  HIS41      -0.2212
     25  N          8.5570    1.3780   31.8220 N.am   42  CYS42      -0.1970
     26  CA         9.3830    2.5890   31.7500 C.3    42  CYS42       0.1712
     27  C          8.9390    3.5600   32.8050 C.2    42  CYS42       0.2296
     28  O          9.5710    4.5800   32.9850 O.2    42  CYS42      -0.2864
     29  CB         9.2580    3.1860   30.3150 C.3    42  CYS42       0.0983
     30  SG         9.9650    2.2470   28.9290 S.3    42  CYS42      -0.0798
     31  N          8.4320    3.1240   36.5350 N.3    44  PRO44      -0.2116
     32  CA         8.4630    2.5890   37.9170 C.3    44  PRO44       0.1372
     33  C          8.2160    3.7450   38.9020 C.2    44  PRO44       0.2244
     34  O          8.2340    4.8980   38.5110 O.2    44  PRO44      -0.2868
     35  CB         9.8500    1.9860   38.0650 C.3    44  PRO44       0.0268
     36  CG        10.6870    2.9710   37.2100 C.3    44  PRO44       0.0207
     37  CD         9.8160    3.1390   35.9510 C.3    44  PRO44       0.0892
     38  N         10.0510    7.0160   38.7340 N.3    47  ASN47      -0.1240
     39  CA         9.9510    7.9490   37.5660 C.3    47  ASN47       0.1653
     40  C          8.5490    8.3870   37.2420 C.2    47  ASN47       0.2266
     41  O          8.1730    8.4660   36.0860 O.2    47  ASN47      -0.2867
     42  CB        10.5900    7.2300   36.3550 C.3    47  ASN47       0.1155
     43  CG        11.9790    6.6980   36.7470 C.2    47  ASN47       0.2627
     44  OD1       12.1050    5.7940   37.5380 O.2    47  ASN47      -0.2716
     45  ND2       13.0760    7.1830   36.2620 N.am   47  ASN47      -0.0877
     46  N         25.7580   -4.7690   24.7580 N.3   132  TYR132     -0.1241
     47  CA        25.2310   -4.7860   26.1280 C.3   132  TYR132      0.1605
     48  C         26.0700   -3.8930   27.0610 C.2   132  TYR132      0.2264
     49  O         25.5220   -3.0380   27.7290 O.2   132  TYR132     -0.2867
     50  CB        25.2530   -6.1970   26.6640 C.3   132  TYR132      0.0534
     51  CG        24.5550   -6.1460   28.0190 C.ar  132  TYR132     -0.0201
     52  CD1       23.1670   -6.2810   28.1050 C.ar  132  TYR132     -0.0009
     53  CD2       25.2760   -5.9390   29.1680 C.ar  132  TYR132     -0.0009
     54  CE1       22.5200   -6.2060   29.3280 C.ar  132  TYR132      0.0417
     55  CE2       24.6400   -5.8640   30.3720 C.ar  132  TYR132      0.0417
     56  CZ        23.2540   -5.9960   30.4720 C.ar  132  TYR132      0.1957
     57  OH        22.6150   -5.9160   31.6970 O.3   132  TYR132     -0.2866
     58  N         19.8620   -7.6550   17.5240 N.3   178  ASP178     -0.1225
     59  CA        18.7820   -7.6800   18.5340 C.3   178  ASP178      0.1805
     60  C         18.6090   -6.2560   19.0560 C.2   178  ASP178      0.2598
     61  O         19.3640   -5.3490   18.7440 O.2   178  ASP178     -0.2718
     62  CB        19.2170   -8.7090   19.6880 C.3   178  ASP178      0.1424
     63  CG        18.1670   -9.0020   20.7920 C.2   178  ASP178      0.3668
     64  OD1       16.9890   -8.7270   20.6070 O.co2 178  ASP178     -0.2456
     65  OD2       18.6090   -9.5120   21.8060 O.co2 178  ASP178     -0.2456
     66  N         17.5940   -6.1080   19.8500 N.am  179  ALA179     -0.1966
     67  CA        17.2720   -4.8310   20.4750 C.3   179  ALA179      0.1728
     68  C         18.1340   -4.9300   21.7740 C.2   179  ALA179      0.2616
     69  O         18.7070   -5.9690   22.0530 O.2   179  ALA179     -0.2715
     70  CB        15.7920   -4.7970   20.7760 C.3   179  ALA179      0.0334
     71  N         18.2290   -3.8870   22.5420 N.am  180  CYS180     -0.1954
     72  CA        19.0500   -3.9800   23.7570 C.3   180  CYS180      0.1843
     73  C         18.5840   -2.8970   24.6790 C.2   180  CYS180      0.2625
     74  O         17.6780   -2.1560   24.3490 O.2   180  CYS180     -0.2714
     75  CB        20.5380   -3.8130   23.3390 C.3   180  CYS180      0.0997
     76  SG        21.8110   -4.3150   24.5330 S.3   180  CYS180     -0.0797
     77  N         19.2310   -2.8490   25.7990 N.am  181  GLN181     -0.1963
     78  CA        18.9600   -1.8590   26.8780 C.3   181  GLN181      0.1733
     79  C         18.9330   -0.4300   26.2610 C.2   181  GLN181      0.2616
     80  O         19.8430   -0.0020   25.5850 O.2   181  GLN181     -0.2715
     81  CB        20.0680   -2.0380   27.8710 C.3   181  GLN181      0.0408
     82  CG        19.8010   -1.2820   29.1450 C.3   181  GLN181      0.0908
     83  CD        20.9910   -1.5400   30.1210 C.2   181  GLN181      0.2608
     84  OE1       21.0010   -1.0020   31.2040 O.2   181  GLN181     -0.2717
     85  NE2       22.0000   -2.3200   29.8200 N.am  181  GLN181     -0.0878
     86  N         17.8850    0.2700   26.5210 N.am  182  GLY182     -0.1955
     87  CA        17.6870    1.6470   26.0050 C.3   182  GLY182      0.1869
     88  C         16.6720    1.6000   24.8320 C.2   182  GLY182      0.2309
     89  O         16.2250    2.6440   24.3670 O.2   182  GLY182     -0.2863
     90  N         13.8440   -0.2990   25.0000 N.3   184  SER184     -0.1217
     91  CA        12.5540   -0.6210   25.6830 C.3   184  SER184      0.1889
     92  C         11.4540    0.4220   25.3290 C.2   184  SER184      0.2288
     93  O         11.7580    1.5960   25.3820 O.2   184  SER184     -0.2866
     94  CB        12.7070   -0.5900   27.2280 C.3   184  SER184      0.2089
     95  OG        13.4150   -1.7670   27.6450 O.3   184  SER184     -0.2183
     96  N          9.0600   -3.1450   22.1130 N.3   206  VAL206     -0.1231
     97  CA        10.3040   -3.7230   22.6750 C.3   206  VAL206      0.1692
     98  C         10.0460   -3.8340   24.1610 C.2   206  VAL206      0.2593
     99  O          9.8120   -2.8300   24.8060 O.2   206  VAL206     -0.2718
    100  CB        11.4720   -2.7960   22.4460 C.3   206  VAL206      0.0266
    101  CG1       12.7220   -3.4200   23.0600 C.3   206  VAL206      0.0020
    102  CG2       11.7050   -2.6020   20.9690 C.3   206  VAL206      0.0020
    103  N         10.1070   -5.0370   24.6700 N.am  207  SER207     -0.1938
    104  CA         9.8610   -5.2770   26.1250 C.3   207  SER207      0.2055
    105  C         11.0800   -5.8270   26.9250 C.2   207  SER207      0.2643
    106  O         11.4840   -5.1840   27.8840 O.2   207  SER207     -0.2714
    107  CB         8.6370   -6.2470   26.1830 C.3   207  SER207      0.2130
    108  OG         8.2110   -6.3770   27.5390 O.3   207  SER207     -0.2179
    109  N         11.6060   -6.9700   26.5520 N.am  208  TRP208     -0.1959
    110  CA        12.7630   -7.5340   27.2920 C.3   208  TRP208      0.1771
    111  C         13.4930   -8.6150   26.5100 C.2   208  TRP208      0.2620
    112  O         13.1970   -8.9370   25.3710 O.2   208  TRP208     -0.2715
    113  CB        12.2800   -8.1150   28.6510 C.3   208  TRP208      0.0590
    114  CG        11.2460   -9.2560   28.5730 C.ar  208  TRP208      0.0006
    115  CD1        9.9090   -9.0830   28.3940 C.ar  208  TRP208      0.0946
    116  CD2       11.5070  -10.5930   28.6760 C.ar  208  TRP208      0.0152
    117  NE1        9.4350  -10.3100   28.3980 N.ar  208  TRP208     -0.2442
    118  CE2       10.3010  -11.3060   28.5630 C.ar  208  TRP208      0.0810
    119  CE3       12.7150  -11.3050   28.8620 C.ar  208  TRP208      0.0012
    120  CZ2       10.3160  -12.7130   28.6370 C.ar  208  TRP208      0.0191
    121  CZ3       12.7290  -12.7050   28.9350 C.ar  208  TRP208      0.0001
    122  CH2       11.5270  -13.4070   28.8220 C.ar  208  TRP208      0.0015
    123  N         14.4640   -9.1460   27.1770 N.am  209  GLY209     -0.1940
    124  CA        15.3070  -10.2330   26.5940 C.3   209  GLY209      0.2014
    125  C         16.4560  -10.5190   27.5830 C.2   209  GLY209      0.2640
    126  O         16.6480   -9.7400   28.5020 O.2   209  GLY209     -0.2714
    127  N         17.1710  -11.5860   27.3870 N.am  210  THR210     -0.1936
    128  CA        18.2960  -11.9300   28.2910 C.3   210  THR210      0.2028
    129  C         19.5430  -11.4860   27.5450 C.2   210  THR210      0.2643
    130  O         19.7590  -11.9930   26.4560 O.2   210  THR210     -0.2714
    131  CB        18.2370  -13.4630   28.5200 C.3   210  THR210      0.1808
    132  OG1       17.1080  -13.6230   29.3740 O.3   210  THR210     -0.2208
    133  CG2       19.4420  -14.0040   29.2990 C.3   210  THR210      0.0379
    134  N         20.3090  -10.5820   28.1320 N.am  211  GLY211     -0.1939
    135  CA        21.5730  -10.0660   27.4770 C.3   211  GLY211      0.2014
    136  C         21.0850   -9.4230   26.2060 C.2   211  GLY211      0.2639
    137  O         19.9540   -8.9830   26.2170 O.2   211  GLY211     -0.2714
    138  N         21.8830   -9.3550   25.1940 N.am  212  CYS212     -0.1967
    139  CA        21.4120   -8.7490   23.9390 C.3   212  CYS212      0.1712
    140  C         22.2070   -9.4620   22.9190 C.2   212  CYS212      0.2296
    141  O         23.3840   -9.6640   23.1260 O.2   212  CYS212     -0.2864
    142  CB        21.7360   -7.2260   23.7900 C.3   212  CYS212      0.0983
    143  SG        21.1840   -6.1560   25.1180 S.3   212  CYS212     -0.0798
    144  N         14.8360  -11.3370   21.1940 N.3   219  GLY219     -0.1210
    145  CA        14.1570  -10.2810   21.9840 C.3   219  GLY219      0.1956
    146  C         12.6680  -10.6410   22.0990 C.2   219  GLY219      0.2612
    147  O         12.1630  -11.2930   21.2020 O.2   219  GLY219     -0.2717
    148  N         12.0510  -10.2110   23.1780 N.am  220  VAL220     -0.1965
    149  CA        10.6130  -10.4700   23.4400 C.3   220  VAL220      0.1727
    150  C          9.9010   -9.0880   23.3720 C.2   220  VAL220      0.2616
    151  O         10.3620   -8.0840   23.9130 O.2   220  VAL220     -0.2715
    152  CB        10.4770  -11.1130   24.8200 C.3   220  VAL220      0.0290
    153  CG1        9.0300  -11.6250   24.9890 C.3   220  VAL220      0.0023
    154  CG2       11.5110  -12.3010   24.9380 C.3   220  VAL220      0.0023
    155  N          8.7820   -9.1250   22.6990 N.am  221  TYR221     -0.1974
    156  CA         7.9340   -7.9400   22.4720 C.3   221  TYR221      0.1639
    157  C          6.5080   -8.1600   22.9340 C.2   221  TYR221      0.2290
    158  O          6.0110   -9.2730   23.0040 O.2   221  TYR221     -0.2864
    159  CB         7.9150   -7.6120   20.9380 C.3   221  TYR221      0.0560
    160  CG         9.3160   -7.3920   20.3630 C.ar  221  TYR221     -0.0198
    161  CD1       10.1900   -8.4720   20.1680 C.ar  221  TYR221     -0.0009
    162  CD2        9.7680   -6.1100   20.0620 C.ar  221  TYR221     -0.0009
    163  CE1       11.4760   -8.2760   19.6960 C.ar  221  TYR221      0.0417
    164  CE2       11.0600   -5.9250   19.5870 C.ar  221  TYR221      0.0417
    165  CZ        11.9240   -7.0030   19.4040 C.ar  221  TYR221      0.1957
    166  OH        13.2070   -6.7990   18.9510 O.3   221  TYR221     -0.2866
@<TRIPOS>BOND
     1    58    59    1
     2    59    60    1
     3    59    62    1
     4    61    60    2
     5   166   165    1
     6    60    66   am
     7   165   164   ar
     8   165   163   ar
     9   164   162   ar
    10    62    63    1
    11   163   161   ar
    12    66    67    1
    13   162   160   ar
    14   161   160   ar
    15   160   159    1
    16    67    70    1
    17    67    68    1
    18    64    63   ar
    19    63    65   ar
    20   159   156    1
    21   102   100    1
    22   144   145    1
    23   147   146    2
    24    68    69    2
    25    68    71   am
    26   145   146    1
    27   146   148   am
    28    96    97    1
    29   100    97    1
    30   100   101    1
    31   156   155    1
    32   156   157    1
    33    71    72    1
    34    97    98    1
    35   155   150   am
    36   140   141    2
    37   140   139    1
    38   157   158    2
    39   148   149    1
    40    75    72    1
    41    75    76    1
    42   150   149    1
    43   150   151    2
    44   149   152    1
    45    72    73    1
    46   142   139    1
    47   142   143    1
    48   139   138    1
    49    98   103   am
    50    98    99    2
    51    74    73    2
    52    89    88    2
    53    76   143    1
    54   103   104    1
    55    73    77   am
    56    46    47    1
    57   152   154    1
    58   152   153    1
    59    88    87    1
    60    90    91    1
    61    12    11    2
    62   138   136   am
    63    11    10    1
    64    92    93    2
    65    92    91    1
    66   112   111    2
    67    80    79    2
    68    91    94    1
    69    77    78    1
    70    87    86    1
    71   104   107    1
    72   104   105    1
    73    47    50    1
    74    47    48    1
    75   107   108    1
    76   136   137    2
    77   136   135    1
    78    79    86   am
    79    79    78    1
    80   130   129    2
    81   111   123   am
    82   111   110    1
    83   109   105   am
    84   109   110    1
    85   124   123    1
    86   124   125    1
    87    10    13    1
    88    10     9    1
    89    50    51    1
    90    78    81    1
    91   105   106    2
    92    48    49    2
    93    94    95    1
    94   110   113    1
    95   127   125   am
    96   127   128    1
    97    13    14    1
    98     9     3   am
    99   135   134    1
   100   129   134   am
   101   129   128    1
   102   125   126    2
   103    81    82    1
   104    51    52   ar
   105    51    53   ar
   106    52    54   ar
   107     4     3    2
   108     3     2    1
   109     1     2    1
   110   128   131    1
   111   115   117   ar
   112   115   114   ar
   113   117   118   ar
   114   131   133    1
   115   131   132    1
   116   118   120   ar
   117   118   116   ar
   118   114   113    1
   119   114   116   ar
   120   120   122   ar
   121   116   119   ar
   122    14    30    1
   123   122   121   ar
   124   119   121   ar
   125    30    29    1
   126     2     5    1
   127    82    83    1
   128    53    55   ar
   129    54    56   ar
   130    23    24   ar
   131    23    21   ar
   132    85    83   am
   133    83    84    2
   134    24    22   ar
   135    21    20   ar
   136     5     6    1
   137    29    26    1
   138    55    56   ar
   139    56    57    1
   140    22    20   ar
   141    20    19    1
   142     7     6    1
   143     6     8    1
   144    26    25    1
   145    26    27    1
   146    15    16    1
   147    25    17   am
   148    19    16    1
   149    17    16    1
   150    17    18    2
   151    27    28    2
   152    37    31    1
   153    37    36    1
   154    41    40    2
   155    45    43   am
   156    42    43    1
   157    42    39    1
   158    31    32    1
   159    43    44    2
   160    36    35    1
   161    40    39    1
   162    39    38    1
   163    32    35    1
   164    32    33    1
   165    34    33    2
