@<TRIPOS>MOLECULE
tmp/1o5gB00.pdb
 190 190 0 0 0
SMALL
GASTEIGER

@<TRIPOS>ATOM
      1  N         12.1740   -8.8120    6.6240 N.3    26  LEU26      -0.1231
      2  CA        12.1590   -7.9720    7.8580 C.3    26  LEU26       0.1693
      3  C         13.2400   -8.6030    8.6820 C.2    26  LEU26       0.2592
      4  O         13.2140   -9.8120    8.8130 O.2    26  LEU26      -0.2718
      5  CB        10.8000   -8.1000    8.6120 C.3    26  LEU26       0.0284
      6  CG        10.8980   -7.7300   10.1380 C.3    26  LEU26       0.0019
      7  CD1       11.0100   -6.2370   10.3500 C.3    26  LEU26       0.0001
      8  CD2        9.6470   -8.2110   10.8760 C.3    26  LEU26       0.0001
      9  N         14.1130   -7.7870    9.1960 N.am   27  LEU27      -0.1966
     10  CA        15.2230   -8.2950   10.0340 C.3    27  LEU27       0.1728
     11  C         14.9250   -7.9910   11.5280 C.2    27  LEU27       0.2616
     12  O         14.8690   -8.8780   12.3630 O.2    27  LEU27      -0.2715
     13  CB        16.5090   -7.5960    9.6160 C.3    27  LEU27       0.0311
     14  CG        17.7100   -8.4770    9.9580 C.3    27  LEU27       0.0022
     15  CD1       17.7820   -9.6290    8.9070 C.3    27  LEU27       0.0001
     16  CD2       18.9770   -7.6280    9.8870 C.3    27  LEU27       0.0001
     17  N         14.7310   -6.7370   11.8320 N.am   28  CYS28      -0.1968
     18  CA        14.4540   -6.3080   13.2310 C.3    28  CYS28       0.1712
     19  C         13.6890   -5.0000   13.2090 C.2    28  CYS28       0.2296
     20  O         13.3870   -4.4790   12.1530 O.2    28  CYS28      -0.2864
     21  CB        15.7920   -6.1160   13.9310 C.3    28  CYS28       0.0983
     22  SG        16.6800   -7.5480   14.5880 S.3    28  CYS28      -0.0798
     23  N         22.6120   -7.0250   18.4190 N.3    43  HIS43      -0.1226
     24  CA        22.5560   -8.4490   17.9710 C.3    43  HIS43       0.1752
     25  C         21.7930   -8.6510   16.6710 C.2    43  HIS43       0.2596
     26  O         21.8410   -9.7220   16.1120 O.2    43  HIS43      -0.2718
     27  CB        21.9420   -9.3620   19.0990 C.3    43  HIS43       0.0759
     28  CG        20.4480   -9.2950   19.3330 C.ar   43  HIS43       0.0818
     29  ND1       19.8240   -8.6130   20.2400 N.ar   43  HIS43      -0.2268
     30  CD2       19.4890   -9.9570   18.6230 C.ar   43  HIS43       0.1154
     31  CE1       18.5440   -8.8290   20.1120 C.ar   43  HIS43       0.1986
     32  NE2       18.3220   -9.6470   19.1330 N.ar   43  HIS43      -0.2212
     33  N         21.1270   -7.6280   16.2240 N.am   44  CYS44      -0.1970
     34  CA        20.3650   -7.7210   14.9520 C.3    44  CYS44       0.1712
     35  C         21.3620   -7.5800   13.8020 C.2    44  CYS44       0.2296
     36  O         21.0990   -7.9940   12.6890 O.2    44  CYS44      -0.2864
     37  CB        19.3740   -6.5800   14.8470 C.3    44  CYS44       0.0983
     38  SG        17.9360   -6.6460   15.9040 S.3    44  CYS44      -0.0798
     39  N         26.0800  -11.0750   15.3420 N.3    47  TYR47      -0.1241
     40  CA        25.7840  -12.1850   16.2720 C.3    47  TYR47       0.1605
     41  C         26.5720  -13.4230   15.7750 C.2    47  TYR47       0.2264
     42  O         26.0450  -14.3320   15.1500 O.2    47  TYR47      -0.2867
     43  CB        24.2760  -12.4620   16.3020 C.3    47  TYR47       0.0534
     44  CG        24.0960  -13.4180   17.4800 C.ar   47  TYR47      -0.0201
     45  CD1       24.5170  -13.0410   18.7550 C.ar   47  TYR47      -0.0009
     46  CD2       23.5480  -14.6590   17.2630 C.ar   47  TYR47      -0.0009
     47  CE1       24.3920  -13.9140   19.8040 C.ar   47  TYR47       0.0417
     48  CE2       23.4230  -15.5230   18.3080 C.ar   47  TYR47       0.0417
     49  CZ        23.8450  -15.1580   19.5720 C.ar   47  TYR47       0.1957
     50  OH        23.7210  -16.0920   20.5750 O.3    47  TYR47      -0.2866
     51  N         25.8310  -17.3550   15.2240 N.3    50  TRP50      -0.1241
     52  CA        25.0080  -17.8070   14.0510 C.3    50  TRP50       0.1605
     53  C         25.5760  -17.2820   12.7690 C.2    50  TRP50       0.2264
     54  O         24.9490  -17.3200   11.7290 O.2    50  TRP50      -0.2867
     55  CB        23.5790  -17.2970   14.1730 C.3    50  TRP50       0.0550
     56  CG        22.8380  -17.9130   15.3390 C.ar   50  TRP50       0.0003
     57  CD1       23.2910  -18.7970   16.2790 C.ar   50  TRP50       0.0946
     58  CD2       21.5370  -17.6460   15.6200 C.ar   50  TRP50       0.0152
     59  NE1       22.2940  -19.0440   17.0900 N.ar   50  TRP50      -0.2442
     60  CE2       21.2150  -18.3880   16.7540 C.ar   50  TRP50       0.0810
     61  CE3       20.5860  -16.8390   15.0130 C.ar   50  TRP50       0.0012
     62  CZ2       19.9290  -18.3240   17.2900 C.ar   50  TRP50       0.0191
     63  CZ3       19.2980  -16.7720   15.5450 C.ar   50  TRP50       0.0001
     64  CH2       18.9680  -17.5150   16.6830 C.ar   50  TRP50       0.0015
     65  N         26.2060  -14.1540   11.9580 N.3    52  LYS52      -0.1245
     66  CA        25.4910  -12.9460   11.4230 C.3    52  LYS52       0.1561
     67  C         26.4280  -11.7660   11.6320 C.2    52  LYS52       0.2260
     68  O         26.9310  -11.6010   12.7240 O.2    52  LYS52      -0.2867
     69  CB        24.1880  -12.6630   12.1670 C.3    52  LYS52       0.0271
     70  CG        23.0550  -13.4330   11.4580 C.3    52  LYS52       0.0035
     71  CD        22.9570  -14.8870   11.9370 C.3    52  LYS52       0.0206
     72  CE        22.5540  -15.8450   10.7670 C.3    52  LYS52       0.1093
     73  NZ        21.3890  -15.3300    9.9930 N.3    52  LYS52      -0.1314
     74  N         26.0650   -8.2330    9.5250 N.3    54  PHE54      -0.1241
     75  CA        25.5900   -7.4380    8.3610 C.3    54  PHE54       0.1605
     76  C         26.3650   -6.1280    8.2820 C.2    54  PHE54       0.2264
     77  O         26.7920   -5.6080    9.2920 O.2    54  PHE54      -0.2867
     78  CB        24.1350   -7.1060    8.5310 C.3    54  PHE54       0.0534
     79  CG        23.2490   -8.3500    8.5520 C.ar   54  PHE54      -0.0203
     80  CD1       23.0480   -9.0740    7.4000 C.ar   54  PHE54      -0.0042
     81  CD2       22.6200   -8.7550    9.7090 C.ar   54  PHE54      -0.0042
     82  CE1       22.2250  -10.1860    7.4090 C.ar   54  PHE54      -0.0003
     83  CE2       21.7990   -9.8660    9.7180 C.ar   54  PHE54      -0.0003
     84  CZ        21.5980  -10.5860    8.5640 C.ar   54  PHE54      -0.0000
     85  N          4.0270   -9.8320   25.4560 N.3   192  ASP192     -0.1225
     86  CA         5.5000   -9.8930   25.3980 C.3   192  ASP192      0.1805
     87  C          5.8890   -9.5880   23.9480 C.2   192  ASP192      0.2598
     88  O          5.0620   -9.5960   23.0530 O.2   192  ASP192     -0.2718
     89  CB         5.9890  -11.3470   25.8490 C.3   192  ASP192      0.1424
     90  CG         7.5240  -11.4920   25.9840 C.2   192  ASP192      0.3668
     91  OD1        8.2000  -10.4900   26.1320 O.co2 192  ASP192     -0.2456
     92  OD2        7.9690  -12.6300   25.9410 O.co2 192  ASP192     -0.2456
     93  N          7.1430   -9.3170   23.7560 N.am  193  ALA193     -0.1966
     94  CA         7.6840   -9.0260   22.4300 C.3   193  ALA193      0.1728
     95  C          8.0410  -10.4460   21.9510 C.2   193  ALA193      0.2616
     96  O          7.9050  -11.3740   22.7270 O.2   193  ALA193     -0.2715
     97  CB         8.9570   -8.1920   22.5420 C.3   193  ALA193      0.0334
     98  N          8.4850  -10.6040   20.7390 N.am  194  CYS194     -0.1954
     99  CA         8.8410  -11.9670   20.2520 C.3   194  CYS194      0.1843
    100  C          9.8030  -11.7980   19.0950 C.2   194  CYS194      0.2625
    101  O         10.1770  -10.6780   18.7730 O.2   194  CYS194     -0.2714
    102  CB         7.5620  -12.7340   19.7970 C.3   194  CYS194      0.0997
    103  SG         7.7560  -14.5300   19.6150 S.3   194  CYS194     -0.0797
    104  N         10.1640  -12.9050   18.5050 N.am  195  GLU195     -0.1963
    105  CA        11.1130  -12.8670   17.3530 C.3   195  GLU195      0.1733
    106  C         10.5990  -11.8800   16.2990 C.2   195  GLU195      0.2616
    107  O          9.4160  -11.8450   16.0170 O.2   195  GLU195     -0.2715
    108  CB        11.2300  -14.2760   16.7440 C.3   195  GLU195      0.0429
    109  CG        12.2410  -14.2370   15.5660 C.3   195  GLU195      0.1163
    110  CD        12.4430  -15.6260   14.9360 C.2   195  GLU195      0.3649
    111  OE1       13.0980  -15.5870   13.9060 O.co2 195  GLU195     -0.2457
    112  OE2       11.9650  -16.6180   15.4780 O.co2 195  GLU195     -0.2457
    113  N         11.4910  -11.1250   15.7430 N.am  196  GLY196     -0.1955
    114  CA        11.0740  -10.1330   14.7090 C.3   196  GLY196      0.1869
    115  C         10.9290   -8.7590   15.3730 C.2   196  GLY196      0.2309
    116  O         11.0040   -7.7500   14.7080 O.2   196  GLY196     -0.2863
    117  N         12.8470   -7.7760   18.1000 N.3   198  SER198     -0.1217
    118  CA        14.2170   -7.3930   18.5980 C.3   198  SER198      0.1889
    119  C         14.6750   -6.0670   17.9730 C.2   198  SER198      0.2288
    120  O         14.4040   -5.8680   16.8070 O.2   198  SER198     -0.2866
    121  CB        15.2900   -8.4900   18.2210 C.3   198  SER198      0.2089
    122  OG        14.8470   -9.7050   18.8250 O.3   198  SER198     -0.2183
    123  N         14.2770   -3.6050   22.6410 N.3   218  VAL218     -0.1231
    124  CA        13.8780   -5.0410   22.8130 C.3   218  VAL218      0.1692
    125  C         15.1930   -5.8330   22.6510 C.2   218  VAL218      0.2593
    126  O         15.8440   -5.7620   21.6210 O.2   218  VAL218     -0.2718
    127  CB        12.8070   -5.3330   21.7160 C.3   218  VAL218      0.0266
    128  CG1       12.2910   -6.7870   21.8560 C.3   218  VAL218      0.0020
    129  CG2       11.5540   -4.3990   21.8830 C.3   218  VAL218      0.0020
    130  N         15.5570   -6.5770   23.6740 N.am  219  SER219     -0.1938
    131  CA        16.8260   -7.3580   23.5960 C.3   219  SER219      0.2055
    132  C         16.5940   -8.8520   23.5700 C.2   219  SER219      0.2643
    133  O         16.8950   -9.4480   22.5620 O.2   219  SER219     -0.2714
    134  CB        17.7380   -7.0170   24.8180 C.3   219  SER219      0.2130
    135  OG        19.0590   -7.4630   24.4930 O.3   219  SER219     -0.2179
    136  N         16.0890   -9.4430   24.6210 N.am  220  TRP220     -0.1959
    137  CA        15.8860  -10.9170   24.5570 C.3   220  TRP220      0.1771
    138  C         14.8230  -11.3890   25.5100 C.2   220  TRP220      0.2620
    139  O         14.2600  -10.6340   26.2810 O.2   220  TRP220     -0.2715
    140  CB        17.2660  -11.6390   24.8490 C.3   220  TRP220      0.0590
    141  CG        17.9190  -11.2790   26.2080 C.ar  220  TRP220      0.0006
    142  CD1       18.8030  -10.2520   26.4760 C.ar  220  TRP220      0.0946
    143  CD2       17.7090  -11.9620   27.3750 C.ar  220  TRP220      0.0152
    144  NE1       19.1120  -10.3140   27.7530 N.ar  220  TRP220     -0.2442
    145  CE2       18.4880  -11.3170   28.3440 C.ar  220  TRP220      0.0810
    146  CE3       16.9360  -13.0660   27.7120 C.ar  220  TRP220      0.0012
    147  CZ2       18.4690  -11.8110   29.6500 C.ar  220  TRP220      0.0191
    148  CZ3       16.9230  -13.5440   29.0130 C.ar  220  TRP220      0.0001
    149  CH2       17.6870  -12.9200   29.9770 C.ar  220  TRP220      0.0015
    150  N         14.5480  -12.6580   25.4170 N.am  221  GLY221     -0.1954
    151  CA        13.5350  -13.3120   26.2710 C.3   221  GLY221      0.1869
    152  C         13.6790  -14.7950   25.9540 C.2   221  GLY221      0.2309
    153  O         14.3010  -15.1210   24.9630 O.2   221  GLY221     -0.2863
    154  N         11.6150  -17.7110   24.9320 N.3   223  GLY223     -0.1210
    155  CA        10.2800  -18.0860   24.3790 C.3   223  GLY223      0.1956
    156  C          9.5580  -16.7450   24.1980 C.2   223  GLY223      0.2612
    157  O         10.2060  -15.7120   24.1130 O.2   223  GLY223     -0.2717
    158  N          8.2650  -16.7660   24.1390 N.am  224  CYS224     -0.1970
    159  CA         7.4880  -15.5140   23.9700 C.3   224  CYS224      0.1712
    160  C          6.2590  -15.7020   24.8400 C.2   224  CYS224      0.2296
    161  O          5.5760  -16.6930   24.7080 O.2   224  CYS224     -0.2864
    162  CB         7.1100  -15.3310   22.4760 C.3   224  CYS224      0.0983
    163  SG         8.5270  -15.1690   21.3800 S.3   224  CYS224     -0.0798
    164  N         10.5350  -10.2120   29.4910 N.3   231  GLY231     -0.1210
    165  CA        11.3260   -9.7810   28.3080 C.3   231  GLY231      0.1956
    166  C         12.3690   -8.8620   28.9120 C.2   231  GLY231      0.2612
    167  O         12.0560   -8.1940   29.8740 O.2   231  GLY231     -0.2717
    168  N         13.5450   -8.8540   28.3420 N.am  232  PHE232     -0.1962
    169  CA        14.6560   -8.0200   28.8160 C.3   232  PHE232      0.1771
    170  C         14.9120   -7.0060   27.7410 C.2   232  PHE232      0.2619
    171  O         14.8260   -7.2930   26.5500 O.2   232  PHE232     -0.2715
    172  CB        15.9530   -8.8780   29.0550 C.3   232  PHE232      0.0574
    173  CG        15.7340   -9.6430   30.3810 C.ar  232  PHE232     -0.0200
    174  CD1       14.9670  -10.7910   30.4040 C.ar  232  PHE232     -0.0042
    175  CD2       16.2590   -9.1550   31.5580 C.ar  232  PHE232     -0.0042
    176  CE1       14.7170  -11.4470   31.5920 C.ar  232  PHE232     -0.0003
    177  CE2       16.0120   -9.8050   32.7360 C.ar  232  PHE232     -0.0003
    178  CZ        15.2400  -10.9520   32.7600 C.ar  232  PHE232     -0.0000
    179  N         15.2250   -5.8450   28.2310 N.am  233  TYR233     -0.1974
    180  CA        15.5160   -4.6570   27.3820 C.3   233  TYR233      0.1639
    181  C         16.8040   -3.9460   27.7470 C.2   233  TYR233      0.2290
    182  O         17.1620   -3.9210   28.9080 O.2   233  TYR233     -0.2864
    183  CB        14.3980   -3.6390   27.5490 C.3   233  TYR233      0.0560
    184  CG        13.0150   -4.2390   27.2720 C.ar  233  TYR233     -0.0198
    185  CD1       12.3230   -4.9630   28.2450 C.ar  233  TYR233     -0.0009
    186  CD2       12.4540   -4.0760   26.0220 C.ar  233  TYR233     -0.0009
    187  CE1       11.0940   -5.5180   27.9630 C.ar  233  TYR233      0.0417
    188  CE2       11.2270   -4.6360   25.7570 C.ar  233  TYR233      0.0417
    189  CZ        10.5480   -5.3480   26.7030 C.ar  233  TYR233      0.1957
    190  OH         9.3330   -5.8900   26.3510 O.3   233  TYR233     -0.2866
@<TRIPOS>BOND
     1     1     2    1
     2    80    82   ar
     3    80    79   ar
     4    82    84   ar
     5     2     5    1
     6     2     3    1
     7    76    75    1
     8    76    77    2
     9    75    78    1
    10    75    74    1
    11    78    79    1
    12    79    81   ar
    13    84    83   ar
    14     5     6    1
    15     3     4    2
    16     3     9   am
    17    15    14    1
    18     9    10    1
    19    13    14    1
    20    13    10    1
    21    81    83   ar
    22    16    14    1
    23    73    72    1
    24    10    11    1
    25     6     7    1
    26     6     8    1
    27    72    71    1
    28    66    67    1
    29    66    65    1
    30    66    69    1
    31    70    71    1
    32    70    69    1
    33    11    17   am
    34    11    12    2
    35    67    68    2
    36    54    53    2
    37    17    18    1
    38    20    19    2
    39    36    35    2
    40    53    52    1
    41    19    18    1
    42    18    21    1
    43    35    34    1
    44   111   110   ar
    45    21    22    1
    46    52    55    1
    47    52    51    1
    48    55    56    1
    49    22    38    1
    50   116   115    2
    51   114   115    1
    52   114   113    1
    53    37    34    1
    54    37    38    1
    55   110   112   ar
    56   110   109    1
    57    34    33    1
    58    61    63   ar
    59    61    58   ar
    60    42    41    2
    61    56    58   ar
    62    56    57   ar
    63    39    40    1
    64    63    64   ar
    65   109   108    1
    66    58    60   ar
    67   113   106   am
    68    41    40    1
    69   107   106    2
    70    26    25    2
    71    33    25   am
    72    40    43    1
    73    57    59   ar
    74   106   105    1
    75    43    44    1
    76    25    24    1
    77    64    62   ar
    78   108   105    1
    79    60    59   ar
    80    60    62   ar
    81   120   119    2
    82    46    44   ar
    83    46    48   ar
    84   105   104    1
    85    44    45   ar
    86    24    23    1
    87    24    27    1
    88   119   118    1
    89   117   118    1
    90   121   118    1
    91   121   122    1
    92    48    49   ar
    93   104   100   am
    94    30    32   ar
    95    30    28   ar
    96    45    47   ar
    97   101   100    2
    98   100    99    1
    99    27    28    1
   100    32    31   ar
   101    28    29   ar
   102    49    47   ar
   103    49    50    1
   104   103   102    1
   105   103   163    1
   106   102    99    1
   107    31    29   ar
   108    99    98    1
   109    98    95   am
   110   163   162    1
   111   126   125    2
   112   127   128    1
   113   127   129    1
   114   127   124    1
   115    95    94    1
   116    95    96    2
   117    94    97    1
   118    94    93    1
   119   162   159    1
   120   133   132    2
   121   123   124    1
   122   125   124    1
   123   125   130   am
   124    88    87    2
   125   132   131    1
   126   132   136   am
   127   131   130    1
   128   131   134    1
   129    93    87   am
   130    87    86    1
   131   159   158    1
   132   159   160    1
   133   157   156    2
   134   158   156   am
   135   156   155    1
   136   155   154    1
   137   135   134    1
   138   137   136    1
   139   137   140    1
   140   137   138    1
   141   161   160    2
   142   140   141    1
   143   153   152    2
   144    86    85    1
   145    86    89    1
   146   150   138   am
   147   150   151    1
   148   138   139    2
   149   188   186   ar
   150   188   189   ar
   151    89    90    1
   152    92    90   ar
   153   152   151    1
   154    90    91   ar
   155   186   184   ar
   156   141   142   ar
   157   141   143   ar
   158   190   189    1
   159   142   144   ar
   160   171   170    2
   161   189   187   ar
   162   184   183    1
   163   184   185   ar
   164   143   146   ar
   165   143   145   ar
   166   180   183    1
   167   180   181    1
   168   180   179    1
   169   146   148   ar
   170   170   179   am
   171   170   169    1
   172   181   182    2
   173   144   145   ar
   174   187   185   ar
   175   165   166    1
   176   165   164    1
   177   168   169    1
   178   168   166   am
   179   145   147   ar
   180   169   172    1
   181   166   167    2
   182   148   149   ar
   183   172   173    1
   184   147   149   ar
   185   173   174   ar
   186   173   175   ar
   187   174   176   ar
   188   175   177   ar
   189   176   178   ar
   190   177   178   ar
