@<TRIPOS>MOLECULE
tmp/1o5iB00.pdb
 205 196 0 0 0
SMALL
GASTEIGER

@<TRIPOS>ATOM
      1  N         59.7210   17.1300   53.8770 N.3    11  ALA11      -0.1231
      2  CA        60.9000   17.9740   53.6350 C.3    11  ALA11       0.1694
      3  C         61.0040   19.0790   54.7030 C.2    11  ALA11       0.2592
      4  O         61.1140   20.2870   54.3880 O.2    11  ALA11      -0.2718
      5  CB        60.8420   18.5820   52.2370 C.3    11  ALA11       0.0304
      6  N         61.0000   18.6330   55.9560 N.am   12  ALA12      -0.1966
      7  CA        60.7750   19.5270   57.0500 C.3    12  ALA12       0.1728
      8  C         61.8470   19.5490   58.1240 C.2    12  ALA12       0.2617
      9  O         61.5370   19.9160   59.2570 O.2    12  ALA12      -0.2715
     10  CB        59.4240   19.2160   57.6630 C.3    12  ALA12       0.0334
     11  N         63.0930   19.1790   57.7960 N.am   13  SER13      -0.1936
     12  CA        64.2190   19.2620   58.7830 C.3    13  SER13       0.2055
     13  C         64.8060   20.6630   58.7660 C.2    13  SER13       0.2646
     14  O         65.3430   21.1060   59.7690 O.2    13  SER13      -0.2714
     15  CB        65.3250   18.2220   58.5290 C.3    13  SER13       0.2130
     16  OG        65.9210   18.3940   57.2550 O.3    13  SER13      -0.2179
     17  N         64.6930   21.3400   57.6150 N.am   14  ARG14      -0.1917
     18  CA        65.1470   22.7190   57.4210 C.3    14  ARG14       0.1945
     19  C         64.0970   23.5690   56.7120 C.2    14  ARG14       0.2659
     20  O         63.0860   23.0790   56.2390 O.2    14  ARG14      -0.2711
     21  CB        66.4050   22.7400   56.5360 C.2    14  ARG14       0.0033
     22  CG        67.6340   22.0590   57.1290 C.2    14  ARG14       0.0179
     23  CD        68.8660   21.9930   56.1950 C.3    14  ARG14       0.2464
     24  NE        68.4990   21.4960   54.8630 N.pl3  14  ARG14      -0.0815
     25  CZ        68.8010   22.0920   53.6910 C.cat  14  ARG14       0.5349
     26  NH1       69.5430   23.2090   53.6300 N.pl3  14  ARG14       0.1354
     27  NH2       68.3800   21.5380   52.5540 N.pl3  14  ARG14       0.1354
     28  N         64.3770   24.8600   56.6440 N.am   15  GLY15      -0.1937
     29  CA        63.6060   25.7970   55.8540 C.3    15  GLY15       0.2014
     30  C         62.1630   26.0070   56.2850 C.2    15  GLY15       0.2639
     31  O         61.8140   26.0530   57.4960 O.2    15  GLY15      -0.2714
     32  N         61.3160   26.1610   55.2700 N.am   16  ILE16      -0.1963
     33  CA        59.9090   26.4560   55.4950 C.3    16  ILE16       0.1727
     34  C         59.1850   25.3200   56.1840 C.2    16  ILE16       0.2616
     35  O         58.3870   25.5510   57.0900 O.2    16  ILE16      -0.2715
     36  CB        59.2550   26.8110   54.1660 C.3    16  ILE16       0.0290
     37  CG1       59.6960   28.2070   53.7630 C.3    16  ILE16       0.0022
     38  CG2       57.7460   26.7780   54.2730 C.3    16  ILE16       0.0023
     39  CD1       59.4660   28.4690   52.3210 C.3    16  ILE16       0.0001
     40  N         59.4580   24.1020   55.7330 N.am   17  GLY17      -0.1955
     41  CA        58.8240   22.9140   56.3160 C.3    17  GLY17       0.1869
     42  C         59.2060   22.7680   57.8000 C.2    17  GLY17       0.2309
     43  O         58.4280   22.3110   58.6280 O.2    17  GLY17      -0.2863
     44  N         62.3900   13.6540   56.1820 N.3    35  ALA35      -0.1231
     45  CA        63.4070   14.1560   55.2400 C.3    35  ALA35       0.1694
     46  C         64.5160   13.1050   55.0630 C.2    35  ALA35       0.2592
     47  O         64.4590   12.0280   55.6450 O.2    35  ALA35      -0.2718
     48  CB        63.9920   15.4970   55.7030 C.3    35  ALA35       0.0304
     49  N         65.5160   13.4130   54.2470 N.am   36  ARG36      -0.1966
     50  CA        66.6210   12.4910   53.9930 C.3    36  ARG36       0.1729
     51  C         67.6340   12.4370   55.1180 C.2    36  ARG36       0.2616
     52  O         68.0830   11.3520   55.4760 O.2    36  ARG36      -0.2715
     53  CB        67.3550   12.8750   52.7020 C.3    36  ARG36       0.0348
     54  CG        66.4900   12.7920   51.4370 C.3    36  ARG36       0.0492
     55  CD        67.2640   12.9980   50.1310 C.3    36  ARG36       0.2205
     56  NE        67.4540   14.4200   49.8630 N.pl3  36  ARG36      -0.0865
     57  CZ        68.5090   14.9540   49.2430 C.cat  36  ARG36       0.5346
     58  NH1       69.5170   14.1850   48.8220 N.pl3  36  ARG36       0.1354
     59  NH2       68.5680   16.2800   49.0630 N.pl3  36  ARG36       0.1354
     60  N         68.0050   13.5850   55.6850 N.am   37  ASN37      -0.1972
     61  CA        69.1270   13.5950   56.6300 C.3    37  ASN37       0.1688
     62  C         68.7660   13.2550   58.0780 C.2    37  ASN37       0.2292
     63  O         68.1600   14.0380   58.7770 O.2    37  ASN37      -0.2864
     64  CB        69.9230   14.8700   56.6070 C.3    37  ASN37       0.1181
     65  CG        71.2710   14.6700   57.2210 C.2    37  ASN37       0.2629
     66  OD1       71.4300   13.9010   58.1780 O.2    37  ASN37      -0.2716
     67  ND2       72.2660   15.2960   56.6450 N.am   37  ASN37      -0.0877
     68  N         70.1980   15.6250   60.9820 N.3    40  LEU40      -0.1245
     69  CA        69.4100   16.8380   61.1090 C.3    40  LEU40       0.1561
     70  C         68.1220   16.5410   61.8470 C.2    40  LEU40       0.2260
     71  O         67.6790   17.3300   62.6640 O.2    40  LEU40      -0.2867
     72  CB        69.0750   17.4270   59.7390 C.3    40  LEU40       0.0270
     73  CG        70.1370   18.1630   58.9120 C.3    40  LEU40       0.0019
     74  CD1       69.5570   18.5750   57.5030 C.3    40  LEU40       0.0001
     75  CD2       70.6130   19.3900   59.6590 C.3    40  LEU40       0.0001
     76  N         62.7970    9.6610   55.1350 N.3    51  CYS51      -0.1221
     77  CA        61.9860    9.4040   53.9260 C.3    51  CYS51       0.1808
     78  C         62.5020   10.1490   52.6740 C.2    51  CYS51       0.2601
     79  O         62.8900   11.2990   52.7570 O.2    51  CYS51      -0.2717
     80  CB        60.5560    9.8870   54.1630 C.3    51  CYS51       0.0970
     81  SG        60.2760   11.6910   53.8270 S.3    51  CYS51      -0.0800
     82  N         62.4480    9.5160   51.5030 N.am   52  ASP52      -0.1959
     83  CA        62.9400   10.1410   50.2590 C.3    52  ASP52       0.1840
     84  C         61.8810   10.2470   49.1660 C.2    52  ASP52       0.2622
     85  O         61.3630    9.2390   48.6870 O.2    52  ASP52      -0.2715
     86  CB        64.1260    9.3610   49.7030 C.3    52  ASP52       0.1450
     87  CG        64.9820   10.2050   48.8020 C.2    52  ASP52       0.3671
     88  OD1       64.6100   11.3800   48.6080 O.co2  52  ASP52      -0.2456
     89  OD2       66.0420    9.8010   48.2810 O.co2  52  ASP52      -0.2456
     90  N         61.5820   11.4680   48.7420 N.am   53  LEU53      -0.1963
     91  CA        60.4700   11.6900   47.8060 C.3    53  LEU53       0.1728
     92  C         60.8230   11.4550   46.3150 C.2    53  LEU53       0.2616
     93  O         59.9550   11.5530   45.4440 O.2    53  LEU53      -0.2715
     94  CB        59.8500   13.0650   48.0430 C.3    53  LEU53       0.0311
     95  CG        59.0040   13.0700   49.3340 C.3    53  LEU53       0.0022
     96  CD1       59.7340   13.6600   50.5290 C.3    53  LEU53       0.0001
     97  CD2       57.6950   13.8100   49.1160 C.3    53  LEU53       0.0001
     98  N         62.0870   11.1200   46.0370 N.am   54  ARG54      -0.1977
     99  CA        62.4570   10.5240   44.7690 C.3    54  ARG54       0.1597
    100  C         62.3800    8.9960   44.8110 C.2    54  ARG54       0.2287
    101  O         62.8280    8.3560   43.8570 O.2    54  ARG54      -0.2864
    102  CB        63.8840   10.8860   44.3370 C.3    54  ARG54       0.0334
    103  CG        64.4440   12.2190   44.8070 C.3    54  ARG54       0.0492
    104  CD        65.3800   12.0920   46.0120 C.3    54  ARG54       0.2205
    105  NE        66.6950   12.7290   45.8280 N.pl3  54  ARG54      -0.0865
    106  CZ        67.8820   12.1470   46.0450 C.cat  54  ARG54       0.5346
    107  NH1       67.9770   10.8910   46.4740 N.pl3  54  ARG54       0.1354
    108  NH2       68.9930   12.8390   45.8340 N.pl3  54  ARG54       0.1354
    109  N         55.5300   19.2440   50.8230 N.3    73  ASN73      -0.1225
    110  CA        56.6740   20.1330   50.5820 C.3    73  ASN73       0.1785
    111  C         57.8060   19.2990   49.9850 C.2    73  ASN73       0.2597
    112  O         57.8790   18.0950   50.2090 O.2    73  ASN73      -0.2718
    113  CB        57.0670   20.8050   51.8920 C.3    73  ASN73       0.1169
    114  CG        58.1760   21.7940   51.7370 C.2    73  ASN73       0.2627
    115  OD1       57.9940   22.8160   51.1460 O.2    73  ASN73      -0.2716
    116  ND2       59.3200   21.4990   52.2930 N.am   73  ASN73      -0.0877
    117  N         58.6670   19.9070   49.1960 N.am   74  ALA74      -0.1966
    118  CA        59.8150   19.1770   48.6280 C.3    74  ALA74       0.1728
    119  C         61.0320   20.0890   48.4840 C.2    74  ALA74       0.2617
    120  O         60.9350   21.2930   48.6500 O.2    74  ALA74      -0.2715
    121  CB        59.4330   18.5850   47.2920 C.3    74  ALA74       0.0334
    122  N         62.1850   19.5070   48.1970 N.am   75  GLY75      -0.1940
    123  CA        63.3350   20.2830   47.7330 C.3    75  GLY75       0.2014
    124  C         63.1120   20.8170   46.3260 C.2    75  GLY75       0.2639
    125  O         62.3080   20.2730   45.5500 O.2    75  GLY75      -0.2714
    126  N         63.8270   21.8800   45.9810 N.am   76  GLY76      -0.1954
    127  CA        63.6630   22.5230   44.6590 C.3    76  GLY76       0.1869
    128  C         64.5030   21.8200   43.6130 C.2    76  GLY76       0.2309
    129  O         65.6720   21.5800   43.8460 O.2    76  GLY76      -0.2863
    130  N         58.7820   13.5010   41.7050 N.3    96  SER96      -0.1217
    131  CA        58.9610   13.9020   43.0830 C.3    96  SER96       0.1889
    132  C         57.9610   14.9760   43.4820 C.2    96  SER96       0.2288
    133  O         57.3810   14.9060   44.5750 O.2    96  SER96      -0.2866
    134  CB        60.4060   14.3730   43.3210 C.3    96  SER96       0.2089
    135  OG        61.0150   14.7870   42.1110 O.3    96  SER96      -0.2183
    136  N         53.0390   23.3320   49.7610 N.3   123  ILE123     -0.1231
    137  CA        53.9000   24.4920   49.6410 C.3   123  ILE123      0.1692
    138  C         54.4680   24.4510   48.2780 C.2   123  ILE123      0.2593
    139  O         55.1780   23.5240   47.9480 O.2   123  ILE123     -0.2718
    140  CB        55.0060   24.5060   50.7160 C.3   123  ILE123      0.0266
    141  CG1       54.3240   24.5870   52.0650 C.3   123  ILE123      0.0019
    142  CG2       55.9420   25.7020   50.4880 C.3   123  ILE123      0.0020
    143  CD1       55.2520   24.4310   53.2220 C.3   123  ILE123      0.0001
    144  N         54.1640   25.4570   47.4780 N.am  124  THR124     -0.1939
    145  CA        54.6120   25.4580   46.0710 C.3   124  THR124      0.2028
    146  C         55.5960   26.6270   45.8680 C.2   124  THR124      0.2642
    147  O         56.6460   26.6410   46.5340 O.2   124  THR124     -0.2714
    148  CB        53.3920   25.5230   45.1440 C.3   124  THR124      0.1808
    149  OG1       52.7180   26.7440   45.4050 O.3   124  THR124     -0.2208
    150  CG2       52.3270   24.4770   45.5230 C.3   124  THR124      0.0379
    151  N         55.2650   27.5910   44.9970 N.am  125  SER125     -0.1949
    152  CA        56.0960   28.7960   44.7500 C.3   125  SER125      0.1924
    153  C         55.3390   29.9430   44.0440 C.2   125  SER125      0.2314
    154  O         54.3980   29.7040   43.2820 O.2   125  SER125     -0.2863
    155  CB        57.3400   28.4350   43.9530 C.3   125  SER125      0.2116
    156  OG        57.9930   29.5890   43.4480 O.3   125  SER125     -0.2180
    157  N         54.9240   22.0810   39.5090 N.3   142  ARG142     -0.1245
    158  CA        54.0730   22.7360   40.4880 C.3   142  ARG142      0.1563
    159  C         52.7210   23.1100   39.8770 C.2   142  ARG142      0.2260
    160  O         51.6980   23.0740   40.5540 O.2   142  ARG142     -0.2867
    161  CB        54.7880   23.9490   41.0920 C.3   142  ARG142      0.0307
    162  CG        55.9160   23.4890   41.9550 C.3   142  ARG142      0.0489
    163  CD        56.9020   24.5570   42.3790 C.3   142  ARG142      0.2205
    164  NE        57.6880   24.1330   43.5680 N.pl3 142  ARG142     -0.0865
    165  CZ        58.9230   24.5850   43.8920 C.cat 142  ARG142      0.5346
    166  NH1       59.5860   25.4320   43.0980 N.pl3 142  ARG142      0.1354
    167  NH2       59.5130   24.1530   45.0090 N.pl3 142  ARG142      0.1354
    168  N         55.1030   30.6640   48.3110 N.3   168  PRO168     -0.2102
    169  CA        55.9130   31.6560   48.9630 C.3   168  PRO168      0.1504
    170  C         56.8270   32.2690   47.9370 C.2   168  PRO168      0.2576
    171  O         57.2600   31.5900   47.0580 O.2   168  PRO168     -0.2718
    172  CB        56.6790   30.8580   50.0230 C.3   168  PRO168      0.0282
    173  CG        56.7450   29.4610   49.4740 C.3   168  PRO168      0.0208
    174  CD        55.6760   29.3170   48.4350 C.3   168  PRO168      0.0893
    175  N         57.0830   33.5590   48.0590 N.am  169  GLY169     -0.1957
    176  CA        58.1170   34.2350   47.3000 C.3   169  GLY169      0.1869
    177  C         59.4860   34.0190   47.8900 C.2   169  GLY169      0.2309
    178  O         59.7100   33.0460   48.5490 O.2   169  GLY169     -0.2863
    179  N         65.6790   31.0740   53.6910 N.3   173  THR173     -0.1203
    180  CA        66.0630   29.7690   54.2060 C.3   173  THR173      0.1994
    181  C         67.5700   29.5880   54.0140 C.2   173  THR173      0.2618
    182  O         68.1890   30.1660   53.1150 O.2   173  THR173     -0.2717
    183  CB        65.2990   28.6440   53.5130 C.3   173  THR173      0.1784
    184  OG1       65.7470   28.4960   52.1670 O.3   173  THR173     -0.2211
    185  CG2       63.8320   28.9920   53.3580 C.3   173  THR173      0.0376
    186  N         68.1490   28.7790   54.8760 N.am  174  GLU174     -0.1965
    187  CA        69.5500   28.4500   54.8260 C.3   174  GLU174      0.1733
    188  C         69.9850   28.0390   53.4220 C.2   174  GLU174      0.2616
    189  O         71.0830   28.3740   52.9700 O.2   174  GLU174     -0.2715
    190  CB        69.7610   27.2910   55.8340 C.3   174  GLU174      0.0429
    191  CG        71.1950   27.0450   56.2930 C.3   174  GLU174      0.1163
    192  CD        71.8510   28.2470   56.9710 C.2   174  GLU174      0.3649
    193  OE1       71.1200   29.1650   57.4310 O.co2 174  GLU174     -0.2457
    194  OE2       73.1070   28.2550   57.0430 O.co2 174  GLU174     -0.2457
    195  N         69.1160   27.3100   52.7430 N.am  175  ARG175     -0.1977
    196  CA        69.3690   26.9020   51.3580 C.3   175  ARG175      0.1597
    197  C         69.5660   28.0900   50.4140 C.2   175  ARG175      0.2287
    198  O         70.4530   28.0770   49.5590 O.2   175  ARG175     -0.2864
    199  CB        68.2260   26.0240   50.8230 C.3   175  ARG175      0.0334
    200  CG        68.5240   25.3300   49.4710 C.3   175  ARG175      0.0492
    201  CD        68.0880   26.1290   48.2170 C.3   175  ARG175      0.2205
    202  NE        67.0330   25.4780   47.4060 N.pl3 175  ARG175     -0.0865
    203  CZ        65.7090   25.7640   47.4280 C.cat 175  ARG175      0.5346
    204  NH1       65.2010   26.6950   48.2260 N.pl3 175  ARG175      0.1354
    205  NH2       64.8750   25.0950   46.6400 N.pl3 175  ARG175      0.1354
@<TRIPOS>BOND
     1   157   158    1
     2   159   158    1
     3   159   160    2
     4   158   161    1
     5   161   162    1
     6   130   131    1
     7   162   163    1
     8   135   134    1
     9   163   164    1
    10   131   134    1
    11   131   132    1
    12   166   165    1
    13   154   153    2
    14   156   155    1
    15   132   133    2
    16   164   165    2
    17   128   129    2
    18   128   127    1
    19   101   100    2
    20   165   167    1
    21   155   152    1
    22   153   152    1
    23   102    99    1
    24   102   103    1
    25   127   126    1
    26   152   151    1
    27    99   100    1
    28    99    98    1
    29   103   104    1
    30   151   146   am
    31   148   149    1
    32   148   150    1
    33   148   145    1
    34    93    92    2
    35   125   124    2
    36   105   104    1
    37   105   106    2
    38   108   106    1
    39   146   145    1
    40   146   147    2
    41   126   124   am
    42    98    92   am
    43   106   107    1
    44   145   144    1
    45    92    91    1
    46   124   123    1
    47   205   203    1
    48   171   170    2
    49   121   118    1
    50   176   177    1
    51   176   175    1
    52   202   203    2
    53   202   201    1
    54   203   204    1
    55   144   138   am
    56   123   122    1
    57    91    94    1
    58    91    90    1
    59   177   178    2
    60   170   175   am
    61   170   169    1
    62   139   138    2
    63    94    95    1
    64   122   119   am
    65   201   200    1
    66   138   137    1
    67    89    87   ar
    68   168   174    1
    69   168   169    1
    70   174   173    1
    71   119   118    1
    72   119   120    2
    73    88    87   ar
    74   118   117    1
    75    85    84    2
    76    90    84   am
    77    87    86    1
    78    58    57    1
    79   169   172    1
    80    59    57    1
    81    97    95    1
    82    84    83    1
    83   117   111   am
    84    57    56    2
    85    95    96    1
    86   200   199    1
    87   173   172    1
    88   198   197    2
    89   137   136    1
    90   137   140    1
    91    86    83    1
    92    56    55    1
    93   111   112    2
    94   111   110    1
    95    55    54    1
    96    83    82    1
    97   197   196    1
    98   142   140    1
    99   110   109    1
   100   110   113    1
   101   140   141    1
   102   199   196    1
   103   115   114    2
   104   196   195    1
   105    54    53    1
   106    82    78   am
   107   114   113    1
   108   114   116   am
   109   141   143    1
   110   184   183    1
   111     5     2    1
   112    39    37    1
   113    27    25    1
   114    78    79    2
   115    78    77    1
   116    53    50    1
   117   195   188   am
   118   189   188    2
   119   182   181    2
   120   185   183    1
   121   188   187    1
   122   183   180    1
   123    26    25    1
   124     2     1    1
   125     2     3    1
   126    25    24    2
   127   179   180    1
   128    37    36    1
   129    81    80    1
   130    77    80    1
   131    77    76    1
   132    50    49    1
   133    50    51    1
   134   181   180    1
   135   181   186   am
   136    36    38    1
   137    36    33    1
   138    49    46   am
   139     4     3    2
   140     3     6   am
   141   187   186    1
   142   187   190    1
   143    24    23    1
   144    46    45    1
   145    46    47    2
   146    51    52    2
   147    51    60   am
   148    45    48    1
   149    45    44    1
   150    32    33    1
   151    32    30   am
   152    33    34    1
   153    60    61    1
   154    40    34   am
   155    40    41    1
   156   190   191    1
   157    29    30    1
   158    29    28    1
   159     6     7    1
   160    34    35    2
   161    23    22    1
   162    20    19    2
   163    30    31    2
   164   191   192    1
   165    41    42    1
   166    21    22    2
   167    21    18    1
   168    64    61    1
   169    64    65    1
   170    61    62    1
   171    28    19   am
   172    67    65   am
   173    19    18    1
   174   192   194   ar
   175   192   193   ar
   176     7    10    1
   177     7     8    1
   178    65    66    2
   179    16    15    1
   180    18    17    1
   181    74    73    1
   182    17    13   am
   183    11     8   am
   184    11    12    1
   185    42    43    2
   186    62    63    2
   187     8     9    2
   188    15    12    1
   189    13    12    1
   190    13    14    2
   191    73    75    1
   192    73    72    1
   193    72    69    1
   194    68    69    1
   195    69    70    1
   196    70    71    2
