@<TRIPOS>MOLECULE
tmp/1o5mB01.pdb
 138 139 0 0 0
SMALL
GASTEIGER

@<TRIPOS>ATOM
      1  N        183.0470  142.6180   34.5630 N.3    70  ALA70      -0.1231
      2  CA       184.2280  141.7640   34.7000 C.3    70  ALA70       0.1694
      3  C        183.8580  140.4100   34.1270 C.2    70  ALA70       0.2592
      4  O        184.7180  139.5900   33.8300 O.2    70  ALA70      -0.2718
      5  CB       184.5960  141.6100   36.1510 C.3    70  ALA70       0.0304
      6  N        182.5540  140.1750   34.0260 N.am   71  TYR71      -0.1976
      7  CA       182.0210  138.9360   33.4920 C.3    71  TYR71       0.1639
      8  C        181.7520  138.9580   31.9990 C.2    71  TYR71       0.2290
      9  O        181.1320  138.0420   31.4730 O.2    71  TYR71      -0.2864
     10  CB       180.7710  138.5200   34.2640 C.3    71  TYR71       0.0560
     11  CG       181.1520  137.8190   35.5380 C.ar   71  TYR71      -0.0198
     12  CD1      181.4200  138.5370   36.7090 C.ar   71  TYR71      -0.0009
     13  CD2      181.3680  136.4460   35.5490 C.ar   71  TYR71      -0.0009
     14  CE1      181.9080  137.8920   37.8530 C.ar   71  TYR71       0.0417
     15  CE2      181.8530  135.7970   36.6830 C.ar   71  TYR71       0.0417
     16  CZ       182.1250  136.5190   37.8260 C.ar   71  TYR71       0.1957
     17  OH       182.6460  135.8550   38.9180 O.3    71  TYR71      -0.2866
     18  N        183.7800  138.3500   29.8180 N.3    73  CYS73      -0.1221
     19  CA       184.5270  137.1930   29.3200 C.3    73  CYS73       0.1808
     20  C        183.7170  135.8920   29.3990 C.2    73  CYS73       0.2601
     21  O        184.1270  134.8640   28.8630 O.2    73  CYS73      -0.2717
     22  CB       185.8480  137.0340   30.0900 C.3    73  CYS73       0.0970
     23  SG       185.7440  136.6330   31.8550 S.3    73  CYS73      -0.0800
     24  N        182.5910  135.9420   30.1040 N.am   74  LEU74      -0.1979
     25  CA       181.7030  134.7910   30.2500 C.3    74  LEU74       0.1596
     26  C        180.3450  135.0990   29.6040 C.2    74  LEU74       0.2287
     27  O        179.3280  134.4690   29.9150 O.2    74  LEU74      -0.2864
     28  CB       181.5580  134.3790   31.7310 C.3    74  LEU74       0.0297
     29  CG       182.7320  133.5870   32.3230 C.3    74  LEU74       0.0022
     30  CD1      182.6980  133.6750   33.8040 C.3    74  LEU74       0.0001
     31  CD2      182.6920  132.1330   31.9070 C.3    74  LEU74       0.0001
     32  N        178.8990  132.0790   28.0760 N.3    77  SER77      -0.1217
     33  CA       178.7560  130.9860   29.0480 C.3    77  SER77       0.1889
     34  C        177.7170  131.3040   30.1160 C.2    77  SER77       0.2288
     35  O        177.8800  130.8970   31.2770 O.2    77  SER77      -0.2866
     36  CB       180.0740  130.7340   29.7580 C.3    77  SER77       0.2089
     37  OG       180.9820  130.1290   28.8760 O.3    77  SER77      -0.2183
     38  N        176.0880  128.6440   32.0100 N.3    80  TRP80      -0.1241
     39  CA       177.0250  128.0900   32.9950 C.3    80  TRP80       0.1605
     40  C        176.8680  128.8440   34.3030 C.2    80  TRP80       0.2264
     41  O        176.8370  128.2450   35.3690 O.2    80  TRP80      -0.2867
     42  CB       178.4820  128.2010   32.5430 C.3    80  TRP80       0.0550
     43  CG       178.9810  127.0880   31.6580 C.ar   80  TRP80       0.0003
     44  CD1      179.3840  127.2010   30.3560 C.ar   80  TRP80       0.0946
     45  CD2      179.2010  125.7140   32.0280 C.ar   80  TRP80       0.0152
     46  NE1      179.8490  125.9960   29.9040 N.ar   80  TRP80      -0.2442
     47  CE2      179.7440  125.0630   30.9030 C.ar   80  TRP80       0.0810
     48  CE3      178.9950  124.9700   33.2030 C.ar   80  TRP80       0.0012
     49  CZ2      180.0830  123.6990   30.9110 C.ar   80  TRP80       0.0191
     50  CZ3      179.3360  123.6110   33.2120 C.ar   80  TRP80       0.0001
     51  CH2      179.8730  122.9960   32.0730 C.ar   80  TRP80       0.0015
     52  N        176.2120  127.0110   37.7490 N.3    84  TRP84      -0.1241
     53  CA       177.1620  127.1930   38.8470 C.3    84  TRP84       0.1605
     54  C        176.4630  127.7820   40.0780 C.2    84  TRP84       0.2264
     55  O        176.6410  127.2980   41.1870 O.2    84  TRP84      -0.2867
     56  CB       178.3330  128.1190   38.4410 C.3    84  TRP84       0.0550
     57  CG       179.2860  127.5950   37.3650 C.ar   84  TRP84       0.0003
     58  CD1      179.5870  126.2770   37.0720 C.ar   84  TRP84       0.0946
     59  CD2      180.0240  128.3860   36.4260 C.ar   84  TRP84       0.0152
     60  NE1      180.4520  126.2190   36.0090 N.ar   84  TRP84      -0.2442
     61  CE2      180.7340  127.4920   35.5890 C.ar   84  TRP84       0.0810
     62  CE3      180.1470  129.7690   36.2020 C.ar   84  TRP84       0.0012
     63  CZ2      181.5550  127.9400   34.5440 C.ar   84  TRP84       0.0191
     64  CZ3      180.9640  130.2120   35.1600 C.ar   84  TRP84       0.0001
     65  CH2      181.6570  129.2980   34.3440 C.ar   84  TRP84       0.0015
     66  N        186.5930  117.7880   40.0820 N.3   281  TRP281     -0.1241
     67  CA       187.0280  117.0500   38.8950 C.3   281  TRP281      0.1605
     68  C        187.8820  115.8390   39.2060 C.2   281  TRP281      0.2264
     69  O        187.7450  114.8120   38.5640 O.2   281  TRP281     -0.2867
     70  CB       187.7830  117.9630   37.9420 C.3   281  TRP281      0.0550
     71  CG       186.9960  119.1570   37.4900 C.ar  281  TRP281      0.0003
     72  CD1      187.3730  120.4570   37.5980 C.ar  281  TRP281      0.0946
     73  CD2      185.7280  119.1630   36.8070 C.ar  281  TRP281      0.0152
     74  NE1      186.4310  121.2750   37.0200 N.ar  281  TRP281     -0.2442
     75  CE2      185.4140  120.5080   36.5240 C.ar  281  TRP281      0.0810
     76  CE3      184.8420  118.1650   36.3990 C.ar  281  TRP281      0.0012
     77  CZ2      184.2530  120.8860   35.8450 C.ar  281  TRP281      0.0191
     78  CZ3      183.6790  118.5400   35.7240 C.ar  281  TRP281      0.0001
     79  CH2      183.4000  119.8950   35.4520 C.ar  281  TRP281      0.0015
     80  N        191.2520  135.4130   42.7900 N.3   335  SER335     -0.1202
     81  CA       189.9610  136.0840   42.8990 C.3   335  SER335      0.2020
     82  C        188.8600  135.0230   42.8910 C.2   335  SER335      0.2619
     83  O        189.0130  133.9340   42.3040 O.2   335  SER335     -0.2717
     84  CB       189.7270  137.0400   41.7280 C.3   335  SER335      0.2103
     85  OG       190.6320  138.1270   41.7650 O.3   335  SER335     -0.2182
     86  N        187.7740  135.3380   43.5850 N.am  336  ARG336     -0.1965
     87  CA       186.6440  134.4520   43.6690 C.3   336  ARG336      0.1729
     88  C        185.8720  134.5340   42.3590 C.2   336  ARG336      0.2616
     89  O        185.9370  135.5290   41.6340 O.2   336  ARG336     -0.2715
     90  CB       185.7200  134.8960   44.8140 C.3   336  ARG336      0.0348
     91  CG       185.0980  136.2740   44.5850 C.3   336  ARG336      0.0492
     92  CD       184.2330  136.7790   45.7500 C.3   336  ARG336      0.2205
     93  NE       183.5340  138.0260   45.4120 N.pl3 336  ARG336     -0.0865
     94  CZ       182.6860  138.6730   46.2150 C.cat 336  ARG336      0.5346
     95  NH1      182.4210  138.2100   47.4240 N.pl3 336  ARG336      0.1354
     96  NH2      182.0600  139.7620   45.7910 N.pl3 336  ARG336      0.1354
     97  N        185.1720  133.4590   42.0430 N.am  337  ASP337     -0.1971
     98  CA       184.3180  133.4400   40.8820 C.3   337  ASP337      0.1709
     99  C        183.2930  132.3460   41.1310 C.2   337  ASP337      0.2293
    100  O        183.4600  131.5280   42.0350 O.2   337  ASP337     -0.2864
    101  CB       185.1100  133.2800   39.5790 C.3   337  ASP337      0.1436
    102  CG       185.8730  132.0130   39.5150 C.2   337  ASP337      0.3671
    103  OD1      185.2390  130.9630   39.4070 O.co2 337  ASP337     -0.2456
    104  OD2      187.1110  132.0530   39.5390 O.co2 337  ASP337     -0.2456
    105  N        182.4760  129.8520   39.2680 N.3   339  TYR339     -0.1227
    106  CA       182.9590  128.5470   38.8090 C.3   339  TYR339      0.1736
    107  C        183.6340  127.7990   39.9650 C.2   339  TYR339      0.2595
    108  O        183.3450  126.6260   40.2360 O.2   339  TYR339     -0.2718
    109  CB       183.9440  128.7400   37.6350 C.3   339  TYR339      0.0548
    110  CG       184.7960  127.5360   37.3350 C.ar  339  TYR339     -0.0200
    111  CD1      184.2320  126.3570   36.8350 C.ar  339  TYR339     -0.0009
    112  CD2      186.1690  127.5610   37.5740 C.ar  339  TYR339     -0.0009
    113  CE1      185.0190  125.2460   36.5910 C.ar  339  TYR339      0.0417
    114  CE2      186.9620  126.4510   37.3240 C.ar  339  TYR339      0.0417
    115  CZ       186.3770  125.3020   36.8420 C.ar  339  TYR339      0.1957
    116  OH       187.1460  124.1880   36.6620 O.3   339  TYR339     -0.2866
    117  N        184.5570  128.4800   40.6270 N.am  340  HIS340     -0.1975
    118  CA       185.2610  127.9120   41.7610 C.3   340  HIS340      0.1656
    119  C        184.3720  127.7530   42.9850 C.2   340  HIS340      0.2291
    120  O        184.6150  126.8730   43.8170 O.2   340  HIS340     -0.2864
    121  CB       186.4680  128.7530   42.0880 C.3   340  HIS340      0.0771
    122  CG       187.5920  128.5460   41.1370 C.ar  340  HIS340      0.0820
    123  ND1      187.8620  129.4190   40.1070 N.ar  340  HIS340     -0.2267
    124  CD2      188.5270  127.5730   41.0660 C.ar  340  HIS340      0.1154
    125  CE1      188.9240  128.9970   39.4470 C.ar  340  HIS340      0.1986
    126  NE2      189.3460  127.8790   40.0080 N.ar  340  HIS340     -0.2212
    127  N        182.4970  124.4630   42.1700 N.3   343  TYR343     -0.1241
    128  CA       183.3320  123.2590   42.3040 C.3   343  TYR343      0.1605
    129  C        184.0410  123.0530   43.6230 C.2   343  TYR343      0.2264
    130  O        184.3550  121.9160   43.9930 O.2   343  TYR343     -0.2867
    131  CB       184.2620  123.0580   41.0860 C.3   343  TYR343      0.0534
    132  CG       183.4540  122.7750   39.8290 C.ar  343  TYR343     -0.0201
    133  CD1      183.0770  123.8140   38.9680 C.ar  343  TYR343     -0.0009
    134  CD2      182.9460  121.4980   39.5750 C.ar  343  TYR343     -0.0009
    135  CE1      182.1970  123.5870   37.8900 C.ar  343  TYR343      0.0417
    136  CE2      182.0710  121.2580   38.5010 C.ar  343  TYR343      0.0417
    137  CZ       181.6990  122.3020   37.6640 C.ar  343  TYR343      0.1957
    138  OH       180.8430  122.0740   36.5950 O.3   343  TYR343     -0.2866
@<TRIPOS>BOND
     1    32    33    1
     2    21    20    2
     3    37    36    1
     4    33    36    1
     5    33    34    1
     6    19    20    1
     7    19    18    1
     8    19    22    1
     9    20    24   am
    10    26    27    2
    11    26    25    1
    12    46    44   ar
    13    46    47   ar
    14    22    23    1
    15    24    25    1
    16    34    35    2
    17    25    28    1
    18    44    43   ar
    19    47    49   ar
    20    47    45   ar
    21    49    51   ar
    22     9     8    2
    23    43    45   ar
    24    43    42    1
    25    28    29    1
    26    31    29    1
    27     8     7    1
    28    38    39    1
    29    45    48   ar
    30    51    50   ar
    31    29    30    1
    32    42    39    1
    33    39    40    1
    34    48    50   ar
    35     7     6    1
    36     7    10    1
    37     4     3    2
    38     6     3   am
    39     3     2    1
    40    10    11    1
    41    40    41    2
    42    65    63   ar
    43    65    64   ar
    44    63    61   ar
    45     1     2    1
    46     2     5    1
    47    64    62   ar
    48    79    78   ar
    49    79    77   ar
    50    11    13   ar
    51    11    12   ar
    52    13    15   ar
    53    61    60   ar
    54    61    59   ar
    55    78    76   ar
    56    77    75   ar
    57    60    58   ar
    58    62    59   ar
    59    76    73   ar
    60    59    57   ar
    61    75    73   ar
    62    75    74   ar
    63   113   111   ar
    64   113   115   ar
    65   138   137    1
    66   116   115    1
    67    15    16   ar
    68    12    14   ar
    69    73    71   ar
    70   111   110   ar
    71   115   114   ar
    72    74    72   ar
    73    58    57   ar
    74   114   112   ar
    75   110   112   ar
    76   110   109    1
    77    57    56    1
    78    71    72   ar
    79    71    70    1
    80   109   106    1
    81   137   135   ar
    82   137   136   ar
    83    52    53    1
    84    16    14   ar
    85    16    17    1
    86   135   133   ar
    87    70    67    1
    88    56    53    1
    89   136   134   ar
    90    69    68    2
    91   106   105    1
    92   106   107    1
    93    53    54    1
    94    67    68    1
    95    67    66    1
    96   133   132   ar
    97   103   102   ar
    98   125   126   ar
    99   125   123   ar
   100   102   104   ar
   101   102   101    1
   102   134   132   ar
   103   101    98    1
   104   132   131    1
   105   107   108    2
   106   107   117   am
   107   126   124   ar
   108    54    55    2
   109   123   122   ar
   110   117   118    1
   111    98    99    1
   112    98    97    1
   113   124   122   ar
   114   131   128    1
   115    99   100    2
   116   122   121    1
   117    89    88    2
   118    84    85    1
   119    84    81    1
   120   118   121    1
   121   118   119    1
   122    97    88   am
   123   127   128    1
   124   128   129    1
   125    83    82    2
   126    88    87    1
   127    80    81    1
   128    82    81    1
   129    82    86   am
   130   119   120    2
   131    86    87    1
   132   129   130    2
   133    87    90    1
   134    91    90    1
   135    91    92    1
   136    93    92    1
   137    93    94    2
   138    96    94    1
   139    94    95    1
