@<TRIPOS>MOLECULE
tmp/1o5oD00.pdb
 154 151 0 0 0
SMALL
GASTEIGER

@<TRIPOS>ATOM
      1  N          8.2610    1.7290   25.8320 N.3    78  ILE78      -0.1231
      2  CA         7.5360    2.0390   27.0330 C.3    78  ILE78       0.1692
      3  C          8.0970    1.1400   28.1190 C.2    78  ILE78       0.2592
      4  O          8.0110   -0.1040   28.0100 O.2    78  ILE78      -0.2718
      5  CB         6.0490    1.7920   26.8770 C.3    78  ILE78       0.0266
      6  CG1        5.4530    2.7150   25.7740 C.3    78  ILE78       0.0019
      7  CG2        5.3580    2.1020   28.2080 C.3    78  ILE78       0.0020
      8  CD1        3.9230    2.7840   25.6770 C.3    78  ILE78       0.0001
      9  N          8.6530    1.7720   29.1580 N.am   79  LEU79      -0.1966
     10  CA         9.1470    1.0810   30.3380 C.3    79  LEU79       0.1728
     11  C          8.0310    0.3120   31.0730 C.2    79  LEU79       0.2616
     12  O          6.9190    0.8050   31.0820 O.2    79  LEU79      -0.2715
     13  CB         9.6490    2.1220   31.3290 C.3    79  LEU79       0.0311
     14  CG        10.6070    3.1970   30.8180 C.3    79  LEU79       0.0022
     15  CD1       10.9420    4.1630   31.9700 C.3    79  LEU79       0.0001
     16  CD2       11.8950    2.5990   30.2320 C.3    79  LEU79       0.0001
     17  N          8.2720   -0.8680   31.6650 N.am   80  ARG80      -0.1963
     18  CA         9.5440   -1.6410   31.5840 C.3    80  ARG80       0.1729
     19  C          9.5910   -2.5700   30.4120 C.2    80  ARG80       0.2616
     20  O         10.6240   -2.8250   29.8450 O.2    80  ARG80      -0.2715
     21  CB         9.7160   -2.5940   32.7690 C.3    80  ARG80       0.0348
     22  CG         9.9180   -1.9690   34.1560 C.3    80  ARG80       0.0492
     23  CD         9.9410   -3.0540   35.2560 C.3    80  ARG80       0.2205
     24  NE         8.6410   -3.7290   35.4100 N.pl3  80  ARG80      -0.0865
     25  CZ         8.4500   -4.8900   36.0140 C.cat  80  ARG80       0.5346
     26  NH1        9.4510   -5.5840   36.5310 N.pl3  80  ARG80       0.1354
     27  NH2        7.2370   -5.3790   36.0840 N.pl3  80  ARG80       0.1354
     28  N          8.4640   -3.1780   30.1080 N.am   81  ALA81      -0.1977
     29  CA         8.4780   -4.3890   29.2650 C.3    81  ALA81       0.1597
     30  C          8.8630   -4.1230   27.8110 C.2    81  ALA81       0.2287
     31  O          9.3320   -5.0280   27.0970 O.2    81  ALA81      -0.2864
     32  CB         7.1160   -5.1350   29.3340 C.3    81  ALA81       0.0319
     33  N         -0.3440    3.7960   34.6610 N.3   105  ARG105     -0.1245
     34  CA        -1.7610    3.7420   34.4420 C.3   105  ARG105      0.1563
     35  C         -2.4590    3.3540   35.7320 C.2   105  ARG105      0.2260
     36  O         -2.1610    2.3210   36.3460 O.2   105  ARG105     -0.2867
     37  CB        -2.0750    2.8130   33.2730 C.3   105  ARG105      0.0307
     38  CG        -2.8060    1.5580   33.6100 C.3   105  ARG105      0.0489
     39  CD        -3.6980    1.1630   32.5550 C.3   105  ARG105      0.2205
     40  NE        -3.6000   -0.2450   32.2630 N.pl3 105  ARG105     -0.0865
     41  CZ        -4.2630   -1.2120   32.8870 C.cat 105  ARG105      0.5346
     42  NH1       -5.0400   -0.9100   33.9530 N.pl3 105  ARG105      0.1354
     43  NH2       -4.1350   -2.4980   32.4240 N.pl3 105  ARG105      0.1354
     44  N          5.3790   -1.6090   23.0350 N.3   132  ASP132     -0.1225
     45  CA         4.8540   -2.0700   24.3190 C.3   132  ASP132      0.1790
     46  C          4.1450   -3.4120   24.0860 C.2   132  ASP132      0.2440
     47  O          3.2940   -3.4860   23.1880 O.2   132  ASP132     -0.2733
     48  CB         3.8810   -1.0280   24.8480 C.3   132  ASP132      0.1423
     49  CG         3.6010   -1.1560   26.3920 C.2   132  ASP132      0.3668
     50  OD1        4.3160   -1.9480   27.1530 O.co2 132  ASP132     -0.2456
     51  OD2        2.6450   -0.4640   26.8890 O.co2 132  ASP132     -0.2456
     52  N          4.4940   -4.4560   24.8560 N.am  133  PRO133     -0.2718
     53  CA         4.0170   -5.8110   24.5500 C.3   133  PRO133      0.1535
     54  C          2.5220   -6.0100   24.6720 C.2   133  PRO133      0.2598
     55  O          1.9610   -6.6820   23.8450 O.2   133  PRO133     -0.2715
     56  CB         4.7850   -6.6910   25.5400 C.3   133  PRO133      0.0310
     57  CG         5.9180   -5.8170   25.9210 C.3   133  PRO133      0.0237
     58  CD         5.3310   -4.4520   26.0620 C.3   133  PRO133      0.0939
     59  N          1.8980   -5.4380   25.6640 N.am  134  MET134     -0.1964
     60  CA         0.5340   -5.7070   25.9240 C.3   134  MET134      0.1736
     61  C         -0.3080   -4.4380   25.7470 C.2   134  MET134      0.2616
     62  O         -0.2270   -3.4890   26.5280 O.2   134  MET134     -0.2715
     63  CB         0.4130   -6.2810   27.3290 C.3   134  MET134      0.0427
     64  CG         1.3360   -7.5040   27.6310 C.3   134  MET134      0.0599
     65  SD         0.8340   -8.9460   26.6470 S.3   134  MET134     -0.1393
     66  CE        -0.6730   -9.4770   27.4680 C.3   134  MET134      0.0692
     67  N         -1.1020   -4.4220   24.6890 N.am  135  LEU135     -0.1963
     68  CA        -1.9860   -3.3060   24.3970 C.3   135  LEU135      0.1728
     69  C         -3.3830   -3.7260   24.8290 C.2   135  LEU135      0.2616
     70  O         -4.1050   -4.4240   24.1130 O.2   135  LEU135     -0.2715
     71  CB        -1.9090   -2.9570   22.9050 C.3   135  LEU135      0.0311
     72  CG        -2.9330   -1.9740   22.3160 C.3   135  LEU135      0.0022
     73  CD1       -3.1920   -0.8490   23.2080 C.3   135  LEU135      0.0001
     74  CD2       -2.4090   -1.4770   20.9950 C.3   135  LEU135      0.0001
     75  N         -3.7340   -3.2840   26.0230 N.am  136  ALA136     -0.1963
     76  CA        -4.8990   -3.7260   26.7390 C.3   136  ALA136      0.1728
     77  C         -6.0560   -2.7460   26.6030 C.2   136  ALA136      0.2617
     78  O         -6.8630   -2.8990   25.6900 O.2   136  ALA136     -0.2715
     79  CB        -4.4940   -3.9340   28.2090 C.3   136  ALA136      0.0334
     80  N         -6.1710   -1.7800   27.5230 N.am  137  THR137     -0.1937
     81  CA        -7.1280   -0.6750   27.3820 C.3   137  THR137      0.2028
     82  C         -6.6790    0.3550   26.3590 C.2   137  THR137      0.2643
     83  O         -7.4850    1.0650   25.7810 O.2   137  THR137     -0.2714
     84  CB        -7.3630    0.0960   28.7140 C.3   137  THR137      0.1808
     85  OG1       -6.2060    0.8880   29.0700 O.3   137  THR137     -0.2208
     86  CG2       -7.6470   -0.8540   29.8930 C.3   137  THR137      0.0379
     87  N         -5.3840    0.4380   26.1390 N.am  138  GLY138     -0.1939
     88  CA        -4.8380    1.3940   25.2210 C.3   138  GLY138      0.2014
     89  C         -4.3740    2.6960   25.8090 C.2   138  GLY138      0.2639
     90  O         -3.7300    3.4680   25.0940 O.2   138  GLY138     -0.2714
     91  N         -4.6520    2.9460   27.0900 N.am  139  VAL139     -0.1963
     92  CA        -4.4160    4.2840   27.6090 C.3   139  VAL139      0.1727
     93  C         -2.9010    4.5820   27.6470 C.2   139  VAL139      0.2617
     94  O         -2.5040    5.6720   27.3210 O.2   139  VAL139     -0.2715
     95  CB        -5.2230    4.6210   28.9050 C.3   139  VAL139      0.0290
     96  CG1       -6.7090    4.3640   28.6360 C.3   139  VAL139      0.0023
     97  CG2       -4.7680    3.7900   30.0970 C.3   139  VAL139      0.0023
     98  N         -2.0810    3.5980   27.9870 N.am  140  SER140     -0.1936
     99  CA        -0.6490    3.7960   28.0560 C.3   140  SER140      0.2055
    100  C         -0.0510    4.1770   26.7370 C.2   140  SER140      0.2643
    101  O          0.6840    5.1540   26.6650 O.2   140  SER140     -0.2714
    102  CB         0.0600    2.5820   28.6480 C.3   140  SER140      0.2130
    103  OG        -0.3250    2.5480   30.0110 O.3   140  SER140     -0.2179
    104  N         -0.3400    3.4160   25.7010 N.am  141  SER141     -0.1949
    105  CA         0.2220    3.7270   24.3990 C.3   141  SER141      0.1924
    106  C         -0.3570    5.0420   23.8400 C.2   141  SER141      0.2314
    107  O          0.3430    5.7620   23.1570 O.2   141  SER141     -0.2863
    108  CB         0.1530    2.5580   23.4090 C.3   141  SER141      0.2116
    109  OG        -1.1870    2.3050   23.1970 O.3   141  SER141     -0.2180
    110  N         -8.1510   -5.5270   33.9520 N.3   193  GLY193     -0.1210
    111  CA        -7.4940   -4.8960   32.8190 C.3   193  GLY193      0.1956
    112  C         -6.4710   -5.7860   32.1700 C.2   193  GLY193      0.2612
    113  O         -5.6230   -5.3100   31.3790 O.2   193  GLY193     -0.2717
    114  N         -6.5150   -7.0820   32.4790 N.am  194  TYR194     -0.1962
    115  CA        -5.6220   -8.0260   31.7880 C.3   194  TYR194      0.1771
    116  C         -6.2830   -8.5980   30.5390 C.2   194  TYR194      0.2619
    117  O         -7.4930   -8.8500   30.5070 O.2   194  TYR194     -0.2715
    118  CB        -5.1850   -9.1660   32.7060 C.3   194  TYR194      0.0574
    119  CG        -4.1600   -8.7590   33.7390 C.ar  194  TYR194     -0.0198
    120  CD1       -2.8370   -8.5530   33.3610 C.ar  194  TYR194     -0.0009
    121  CD2       -4.5050   -8.5680   35.0740 C.ar  194  TYR194     -0.0009
    122  CE1       -1.8750   -8.1800   34.2530 C.ar  194  TYR194      0.0417
    123  CE2       -3.5300   -8.1940   36.0100 C.ar  194  TYR194      0.0417
    124  CZ        -2.2100   -8.0000   35.5690 C.ar  194  TYR194      0.1957
    125  OH        -1.1990   -7.6220   36.4140 O.3   194  TYR194     -0.2866
    126  N         -5.4610   -8.8200   29.5250 N.am  195  ILE195     -0.1977
    127  CA        -5.8750   -9.4390   28.2680 C.3   195  ILE195      0.1596
    128  C         -6.0970  -10.9360   28.4990 C.2   195  ILE195      0.2287
    129  O         -5.2670  -11.6030   29.0900 O.2   195  ILE195     -0.2864
    130  CB        -4.8220   -9.1870   27.1700 C.3   195  ILE195      0.0276
    131  CG1       -4.5500   -7.6930   27.0520 C.3   195  ILE195      0.0022
    132  CG2       -5.2400   -9.7600   25.8010 C.3   195  ILE195      0.0022
    133  CD1       -3.2450   -7.3210   26.3830 C.3   195  ILE195      0.0001
    134  N         -0.7140  -13.1560   31.2580 N.3   200  GLY200     -0.1210
    135  CA        -0.4170  -12.6710   32.6130 C.3   200  GLY200      0.1956
    136  C          0.1240  -11.2620   32.5990 C.2   200  GLY200      0.2612
    137  O         -0.3120  -10.4350   31.7960 O.2   200  GLY200     -0.2717
    138  N          1.0580  -11.0030   33.5170 N.am  201  ASP201     -0.1959
    139  CA         1.7370   -9.7080   33.6450 C.3   201  ASP201      0.1840
    140  C          3.1040   -9.7670   32.9550 C.2   201  ASP201      0.2622
    141  O          4.0320  -10.4130   33.4500 O.2   201  ASP201     -0.2715
    142  CB         1.9160   -9.3870   35.1270 C.3   201  ASP201      0.1450
    143  CG         2.2760   -7.9390   35.3720 C.2   201  ASP201      0.3671
    144  OD1        3.2320   -7.4080   34.7230 O.co2 201  ASP201     -0.2456
    145  OD2        1.6420   -7.2590   36.2200 O.co2 201  ASP201     -0.2456
    146  N          3.2390   -9.0560   31.8520 N.am  202  ALA202     -0.1963
    147  CA         4.4260   -9.1900   31.0330 C.3   202  ALA202      0.1728
    148  C          5.6840   -8.7060   31.7750 C.2   202  ALA202      0.2616
    149  O          6.6520   -9.4640   31.8780 O.2   202  ALA202     -0.2715
    150  CB         4.2460   -8.4870   29.7360 C.3   202  ALA202      0.0334
    151  N          5.6600   -7.4950   32.3430 N.am  203  GLY203     -0.1955
    152  CA         6.8220   -6.9890   33.0840 C.3   203  GLY203      0.1869
    153  C          7.3030   -7.9450   34.1760 C.2   203  GLY203      0.2309
    154  O          8.5010   -8.1960   34.3210 O.2   203  GLY203     -0.2863
@<TRIPOS>BOND
     1    74    72    1
     2    72    71    1
     3    72    73    1
     4    71    68    1
     5    44    45    1
     6   107   106    2
     7    47    46    2
     8   109   108    1
     9   108   105    1
    10   106   105    1
    11    55    54    2
    12    46    45    1
    13    46    52   am
    14    70    69    2
    15    45    48    1
    16    68    67    1
    17    68    69    1
    18   105   104    1
    19    53    54    1
    20    53    52    1
    21    53    56    1
    22    54    59   am
    23    67    61   am
    24    69    75   am
    25    48    49    1
    26    52    58    1
    27    90    89    2
    28    88    89    1
    29    88    87    1
    30    56    57    1
    31    59    60    1
    32     8     6    1
    33    78    77    2
    34   104   100   am
    35    61    60    1
    36    61    62    2
    37     6     5    1
    38    83    82    2
    39   132   130    1
    40    89    91   am
    41     1     2    1
    42    57    58    1
    43    60    63    1
    44    75    76    1
    45    87    82   am
    46    82    81    1
    47   133   131    1
    48    49    51   ar
    49    49    50   ar
    50    77    76    1
    51    77    80   am
    52    65    66    1
    53    65    64    1
    54   101   100    2
    55   100    99    1
    56    76    79    1
    57     5     2    1
    58     5     7    1
    59     2     3    1
    60   131   130    1
    61    91    92    1
    62    31    30    2
    63   130   127    1
    64    94    93    2
    65    63    64    1
    66    81    80    1
    67    81    84    1
    68    92    93    1
    69    92    95    1
    70    93    98   am
    71    30    29    1
    72    98    99    1
    73     4     3    2
    74    99   102    1
    75     3     9   am
    76   127   128    1
    77   127   126    1
    78   128   129    2
    79    96    95    1
    80   102   103    1
    81    84    85    1
    82    84    86    1
    83    95    97    1
    84     9    10    1
    85    29    32    1
    86    29    28    1
    87   126   116   am
    88   150   147    1
    89    20    19    2
    90    28    19   am
    91    16    14    1
    92    10    11    1
    93    10    13    1
    94    19    18    1
    95   117   116    2
    96   116   115    1
    97    14    13    1
    98    14    15    1
    99   147   148    1
   100   147   146    1
   101    11    12    2
   102    11    17   am
   103   134   135    1
   104   113   112    2
   105    18    17    1
   106    18    21    1
   107   148   149    2
   108   148   151   am
   109   115   114    1
   110   115   118    1
   111   137   136    2
   112   146   140   am
   113   112   114   am
   114   112   111    1
   115    40    39    1
   116    40    41    2
   117   151   152    1
   118    43    41    1
   119    39    38    1
   120   136   135    1
   121   136   138   am
   122   118   119    1
   123    21    22    1
   124   111   110    1
   125    41    42    1
   126   140   141    2
   127   140   139    1
   128   152   153    1
   129    37    38    1
   130    37    34    1
   131   120   119   ar
   132   120   122   ar
   133   138   139    1
   134   139   142    1
   135   119   121   ar
   136    22    23    1
   137   153   154    2
   138   122   124   ar
   139    34    33    1
   140    34    35    1
   141   144   143   ar
   142   121   123   ar
   143   142   143    1
   144    23    24    1
   145   143   145   ar
   146    24    25    2
   147   124   123   ar
   148   124   125    1
   149    35    36    2
   150    25    27    1
   151    25    26    1
