@<TRIPOS>MOLECULE
tmp/1o5pA00.pdb
 194 190 0 0 0
SMALL
GASTEIGER

@<TRIPOS>ATOM
      1  N         -3.0680    5.5870    6.2190 N.3    33  ASP33      -0.1225
      2  CA        -3.5760    5.2740    4.8560 C.3    33  ASP33       0.1805
      3  C         -3.2440    3.8120    4.5570 C.2    33  ASP33       0.2598
      4  O         -2.4340    3.2060    5.2300 O.2    33  ASP33      -0.2718
      5  CB        -2.9260    6.2010    3.8140 C.3    33  ASP33       0.1424
      6  CG        -4.0200    6.8470    2.9620 C.2    33  ASP33       0.3668
      7  OD1       -4.7070    7.7160    3.4740 O.co2  33  ASP33      -0.2456
      8  OD2       -4.1520    6.4630    1.8110 O.co2  33  ASP33      -0.2456
      9  N         -3.8800    3.2270    3.5840 N.am   34  VAL34      -0.1966
     10  CA        -3.6150    1.7900    3.2870 C.3    34  VAL34       0.1727
     11  C         -3.6490    1.5610    1.7600 C.2    34  VAL34       0.2616
     12  O         -4.6690    1.7560    1.1370 O.2    34  VAL34      -0.2715
     13  CB        -4.7170    0.9620    3.9860 C.3    34  VAL34       0.0290
     14  CG1       -6.0000    0.9940    3.1580 C.3    34  VAL34       0.0023
     15  CG2       -4.2560   -0.4850    4.1420 C.3    34  VAL34       0.0023
     16  N         -2.5530    1.1620    1.1290 N.am   35  GLY35      -0.1955
     17  CA        -2.6200    0.9580   -0.3490 C.3    35  GLY35       0.1869
     18  C         -1.3950    0.1950   -0.8720 C.2    35  GLY35       0.2309
     19  O         -0.5420   -0.2560   -0.1200 O.2    35  GLY35      -0.2863
     20  N          1.9240    0.4410   -2.7890 N.3    37  CYS37      -0.1235
     21  CA         2.9420    1.4060   -3.2860 C.3    37  CYS37       0.1677
     22  C          4.2880    0.6920   -3.4580 C.2    37  CYS37       0.2270
     23  O          4.5890   -0.2630   -2.7680 O.2    37  CYS37      -0.2867
     24  CB         3.0930    2.5630   -2.3000 C.3    37  CYS37       0.0956
     25  SG         1.4860    2.9890   -1.5720 S.3    37  CYS37      -0.0801
     26  N          8.6640    1.1110   -3.9280 N.3    39  TRP39      -0.1241
     27  CA         9.8280    2.0440   -3.8590 C.3    39  TRP39       0.1605
     28  C         10.7680    1.6940   -5.0140 C.2    39  TRP39       0.2264
     29  O         11.3200    0.6120   -5.0660 O.2    39  TRP39      -0.2867
     30  CB        10.5970    1.8310   -2.5580 C.3    39  TRP39       0.0550
     31  CG        10.0460    2.6740   -1.4490 C.ar   39  TRP39       0.0003
     32  CD1        9.9950    4.0310   -1.4330 C.ar   39  TRP39       0.0946
     33  CD2        9.4860    2.2320   -0.1800 C.ar   39  TRP39       0.0152
     34  NE1        9.4620    4.4430   -0.2320 N.ar   39  TRP39      -0.2442
     35  CE2        9.1280    3.3720    0.5770 C.ar   39  TRP39       0.0810
     36  CE3        9.2610    0.9610    0.3840 C.ar   39  TRP39       0.0012
     37  CZ2        8.5690    3.2570    1.8500 C.ar   39  TRP39       0.0191
     38  CZ3        8.6950    0.8430    1.6640 C.ar   39  TRP39       0.0001
     39  CH2        8.3530    1.9880    2.3960 C.ar   39  TRP39       0.0015
     40  N         13.9240    7.1350   -1.8850 N.3    43  GLY43      -0.1225
     41  CA        12.8940    8.1920   -1.6720 C.3    43  GLY43       0.1811
     42  C         11.9540    8.3100   -2.8810 C.2    43  GLY43       0.2280
     43  O         11.3930    9.3600   -3.1300 O.2    43  GLY43      -0.2866
     44  N          8.4790    6.8780   -4.1700 N.3    45  LEU45      -0.1245
     45  CA         7.3540    5.9600   -3.8470 C.3    45  LEU45       0.1561
     46  C          6.2310    6.1250   -4.8820 C.2    45  LEU45       0.2260
     47  O          5.4810    7.0810   -4.8430 O.2    45  LEU45      -0.2867
     48  CB         6.8630    6.3940   -2.4450 C.3    45  LEU45       0.0270
     49  CG         6.1190    5.2900   -1.6670 C.3    45  LEU45       0.0019
     50  CD1        6.9360    4.0030   -1.6090 C.3    45  LEU45       0.0001
     51  CD2        5.9000    5.7730   -0.2250 C.3    45  LEU45       0.0001
     52  N          2.7450    5.0240   -5.9000 N.3    47  CYS47      -0.1235
     53  CA         1.6030    4.2060   -5.4030 C.3    47  CYS47       0.1677
     54  C          0.4510    4.2280   -6.4090 C.2    47  CYS47       0.2270
     55  O          0.4260    5.0240   -7.3270 O.2    47  CYS47      -0.2867
     56  CB         1.1380    4.7510   -4.0480 C.3    47  CYS47       0.0956
     57  SG         0.2780    3.4450   -3.1340 S.3    47  CYS47      -0.0801
     58  N         -5.9870    2.9390   -2.4530 N.3    52  PHE52      -0.1241
     59  CA        -5.7950    4.0150   -1.4510 C.3    52  PHE52       0.1605
     60  C         -6.9600    4.0600   -0.4590 C.2    52  PHE52       0.2264
     61  O         -7.9060    4.8020   -0.6350 O.2    52  PHE52      -0.2867
     62  CB        -5.6980    5.3610   -2.1650 C.3    52  PHE52       0.0534
     63  CG        -4.2600    5.8180   -2.1890 C.ar   52  PHE52      -0.0203
     64  CD1       -3.3810    5.3100   -3.1520 C.ar   52  PHE52      -0.0042
     65  CD2       -3.8050    6.7510   -1.2490 C.ar   52  PHE52      -0.0042
     66  CE1       -2.0470    5.7330   -3.1760 C.ar   52  PHE52      -0.0003
     67  CE2       -2.4710    7.1750   -1.2720 C.ar   52  PHE52      -0.0003
     68  CZ        -1.5910    6.6650   -2.2350 C.ar   52  PHE52      -0.0000
     69  N          2.0160    6.8620   -8.9620 N.3    76  PHE76      -0.1227
     70  CA         1.8590    8.2210   -8.3270 C.3    76  PHE76       0.1736
     71  C          3.1270    8.5870   -7.5270 C.2    76  PHE76       0.2595
     72  O          3.4370    7.9650   -6.5320 O.2    76  PHE76      -0.2718
     73  CB         0.6360    8.2310   -7.3820 C.3    76  PHE76       0.0547
     74  CG        -0.6000    8.5640   -8.1820 C.ar   76  PHE76      -0.0202
     75  CD1       -0.6920    8.1710   -9.5230 C.ar   76  PHE76      -0.0042
     76  CD2       -1.6510    9.2720   -7.5870 C.ar   76  PHE76      -0.0042
     77  CE1       -1.8340    8.4860  -10.2680 C.ar   76  PHE76      -0.0003
     78  CE2       -2.7930    9.5890   -8.3320 C.ar   76  PHE76      -0.0003
     79  CZ        -2.8850    9.1960   -9.6730 C.ar   76  PHE76      -0.0000
     80  N          3.8630    9.5960   -7.9560 N.am   77  LEU77      -0.1966
     81  CA         5.1050    9.9940   -7.2200 C.3    77  LEU77       0.1728
     82  C          4.7440   11.0010   -6.1080 C.2    77  LEU77       0.2616
     83  O          4.1000   11.9960   -6.3680 O.2    77  LEU77      -0.2715
     84  CB         6.0610   10.6680   -8.2220 C.3    77  LEU77       0.0311
     85  CG         7.5240   10.3580   -7.8810 C.3    77  LEU77       0.0022
     86  CD1        7.7830    8.8540   -8.0000 C.3    77  LEU77       0.0001
     87  CD2        8.4380   11.1030   -8.8570 C.3    77  LEU77       0.0001
     88  N          5.1460   10.7580   -4.8750 N.am   78  PHE78      -0.1960
     89  CA         4.8160   11.7170   -3.7720 C.3    78  PHE78       0.1771
     90  C          5.5050   13.0650   -4.0210 C.2    78  PHE78       0.2620
     91  O          6.2710   13.5360   -3.2030 O.2    78  PHE78      -0.2715
     92  CB         5.3130   11.1590   -2.4350 C.3    78  PHE78       0.0574
     93  CG         4.6080   11.8690   -1.3040 C.ar   78  PHE78      -0.0200
     94  CD1        3.2460   11.6370   -1.0700 C.ar   78  PHE78      -0.0042
     95  CD2        5.3160   12.7590   -0.4890 C.ar   78  PHE78      -0.0042
     96  CE1        2.5950   12.2970   -0.0210 C.ar   78  PHE78      -0.0003
     97  CE2        4.6640   13.4190    0.5600 C.ar   78  PHE78      -0.0003
     98  CZ         3.3030   13.1870    0.7940 C.ar   78  PHE78      -0.0000
     99  N          5.2420   13.6900   -5.1320 N.am   79  ASP79      -0.1957
    100  CA         5.8840   15.0050   -5.4190 C.3    79  ASP79       0.1840
    101  C          5.0790   15.7540   -6.4840 C.2    79  ASP79       0.2623
    102  O          5.5730   16.6660   -7.1170 O.2    79  ASP79      -0.2715
    103  CB         7.3090   14.7740   -5.9250 C.3    79  ASP79       0.1450
    104  CG         8.1220   16.0600   -5.7690 C.2    79  ASP79       0.3671
    105  OD1        7.7840   16.8500   -4.9020 O.co2  79  ASP79      -0.2456
    106  OD2        9.0680   16.2340   -6.5190 O.co2  79  ASP79      -0.2456
    107  N          3.8440   15.3810   -6.6900 N.am   80  GLY80      -0.1940
    108  CA         3.0150   16.0780   -7.7150 C.3    80  GLY80       0.2014
    109  C          3.2590   15.4620   -9.0960 C.2    80  GLY80       0.2639
    110  O          2.4120   15.5200   -9.9670 O.2    80  GLY80      -0.2714
    111  N          4.4100   14.8830   -9.3150 N.am   81  THR81      -0.1950
    112  CA         4.6990   14.2820  -10.6420 C.3    81  THR81       0.1897
    113  C          4.3410   12.7930  -10.6440 C.2    81  THR81       0.2313
    114  O          4.2600   12.1450   -9.6140 O.2    81  THR81      -0.2863
    115  CB         6.1880   14.4450  -10.9570 C.3    81  THR81       0.1794
    116  OG1        6.8840   14.8040   -9.7720 O.3    81  THR81      -0.2208
    117  CG2        6.3730   15.5360  -12.0120 C.3    81  THR81       0.0378
    118  N          4.7410   -3.2610   -2.2140 N.3    94  GLN94      -0.1245
    119  CA         4.2690   -3.7480   -0.9070 C.3    94  GLN94       0.1566
    120  C          2.9100   -3.1740   -0.5690 C.2    94  GLN94       0.2260
    121  O          2.5850   -2.0410   -0.8780 O.2    94  GLN94      -0.2867
    122  CB         5.2540   -3.3300    0.1700 C.3    94  GLN94       0.0367
    123  CG         6.3260   -4.3870    0.2230 C.3    94  GLN94       0.0905
    124  CD         7.6890   -3.7580    0.0000 C.2    94  GLN94       0.2608
    125  OE1        8.3270   -3.3120    0.9320 O.2    94  GLN94      -0.2717
    126  NE2        8.1700   -3.7010   -1.2000 N.am   94  GLN94      -0.0878
    127  N          0.8680   -1.8800    2.3500 N.3    96  GLY96      -0.1210
    128  CA         1.0490   -1.5140    3.7800 C.3    96  GLY96       0.1956
    129  C          0.2430   -0.2740    4.1490 C.2    96  GLY96       0.2612
    130  O         -0.5940    0.1960    3.4000 O.2    96  GLY96      -0.2717
    131  N          0.4850    0.2430    5.3250 N.am   97  LEU97      -0.1965
    132  CA        -0.2640    1.4390    5.7950 C.3    97  LEU97       0.1728
    133  C          0.7260    2.5500    6.1300 C.2    97  LEU97       0.2617
    134  O          1.9270    2.3780    6.0580 O.2    97  LEU97      -0.2715
    135  CB        -1.0900    1.0910    7.0550 C.3    97  LEU97       0.0311
    136  CG        -1.2380   -0.4200    7.1770 C.3    97  LEU97       0.0022
    137  CD1       -0.3200   -0.9400    8.2870 C.3    97  LEU97       0.0001
    138  CD2       -2.6850   -0.7740    7.5070 C.3    97  LEU97       0.0001
    139  N          0.2220    3.6850    6.4990 N.am   98  SER98      -0.1936
    140  CA         1.1110    4.8270    6.8500 C.3    98  SER98       0.2055
    141  C          0.2620    5.9990    7.3380 C.2    98  SER98       0.2643
    142  O         -0.9500    5.9390    7.3360 O.2    98  SER98      -0.2714
    143  CB         1.9150    5.2500    5.6240 C.3    98  SER98       0.2130
    144  OG         3.1460    4.5400    5.6110 O.3    98  SER98      -0.2179
    145  N          0.8810    7.0690    7.7590 N.am   99  ASP99      -0.1957
    146  CA         0.0890    8.2330    8.2440 C.3    99  ASP99       0.1840
    147  C          0.4780    9.4790    7.4300 C.2    99  ASP99       0.2622
    148  O          0.9690    9.3730    6.3230 O.2    99  ASP99      -0.2715
    149  CB         0.3580    8.4330    9.7470 C.3    99  ASP99       0.1450
    150  CG         1.5170    9.4130    9.9660 C.2    99  ASP99       0.3671
    151  OD1        2.4090    9.4400    9.1340 O.co2  99  ASP99      -0.2456
    152  OD2        1.4900   10.1200   10.9600 O.co2  99  ASP99      -0.2456
    153  N          0.2650   10.6580    7.9570 N.am  100  ALA100     -0.1963
    154  CA         0.6300   11.8850    7.1960 C.3   100  ALA100      0.1728
    155  C          1.7060   12.6530    7.9640 C.2   100  ALA100      0.2616
    156  O          1.7280   13.8670    7.9780 O.2   100  ALA100     -0.2715
    157  CB        -0.6090   12.7700    7.0310 C.3   100  ALA100      0.0334
    158  N          2.5960   11.9500    8.6070 N.am  101  ALA101     -0.1963
    159  CA         3.6680   12.6340    9.3790 C.3   101  ALA101      0.1728
    160  C          5.0210   12.4110    8.6980 C.2   101  ALA101      0.2617
    161  O          5.8910   13.2580    8.7430 O.2   101  ALA101     -0.2715
    162  CB         3.7140   12.0680   10.7990 C.3   101  ALA101      0.0334
    163  N          5.2140   11.2800    8.0720 N.am  102  GLY102     -0.1940
    164  CA         6.5100   11.0180    7.4030 C.3   102  GLY102      0.2014
    165  C          6.5840    9.5310    7.0990 C.2   102  GLY102      0.2638
    166  O          7.0980    9.1210    6.0810 O.2   102  GLY102     -0.2714
    167  N          6.0550    8.7210    7.9760 N.am  103  ASN103     -0.1972
    168  CA         6.0760    7.2730    7.7450 C.3   103  ASN103      0.1688
    169  C          5.1250    6.5830    8.7160 C.2   103  ASN103      0.2292
    170  O          4.4310    7.2080    9.4930 O.2   103  ASN103     -0.2864
    171  CB         7.4920    6.7510    7.9520 C.3   103  ASN103      0.1181
    172  CG         8.0230    6.2000    6.6320 C.2   103  ASN103      0.2629
    173  OD1        8.5760    5.1180    6.5830 O.2   103  ASN103     -0.2716
    174  ND2        7.8740    6.9100    5.5510 N.am  103  ASN103     -0.0877
    175  N          3.7440    2.0910    9.8500 N.3   105  PRO105     -0.2102
    176  CA         4.0950    0.6620    9.7660 C.3   105  PRO105      0.1504
    177  C          4.7000    0.3460    8.3920 C.2   105  PRO105      0.2576
    178  O          4.8040    1.2020    7.5370 O.2   105  PRO105     -0.2718
    179  CB         2.7710   -0.0830    9.9840 C.3   105  PRO105      0.0282
    180  CG         1.7060    0.9670   10.3880 C.3   105  PRO105      0.0208
    181  CD         2.3860    2.3460   10.3940 C.3   105  PRO105      0.0893
    182  N          5.1170   -0.8730    8.1790 N.am  106  GLU106     -0.1966
    183  CA         5.7360   -1.2320    6.8700 C.3   106  GLU106      0.1733
    184  C          4.6810   -1.8080    5.9250 C.2   106  GLU106      0.2616
    185  O          3.4950   -1.7420    6.1830 O.2   106  GLU106     -0.2715
    186  CB         6.8350   -2.2710    7.0970 C.3   106  GLU106      0.0429
    187  CG         6.2660   -3.4530    7.8830 C.3   106  GLU106      0.1163
    188  CD         7.1710   -4.6730    7.6980 C.2   106  GLU106      0.3649
    189  OE1        8.0570   -4.6070    6.8620 O.co2 106  GLU106     -0.2457
    190  OE2        6.9630   -5.6520    8.3970 O.co2 106  GLU106     -0.2457
    191  N          5.1100   -2.3710    4.8280 N.am  107  GLY107     -0.1955
    192  CA         4.1420   -2.9510    3.8560 C.3   107  GLY107      0.1869
    193  C          4.4840   -4.4210    3.6010 C.2   107  GLY107      0.2309
    194  O          5.5690   -4.8800    3.8990 O.2   107  GLY107     -0.2863
@<TRIPOS>BOND
     1   117   115    1
     2   115   112    1
     3   115   116    1
     4   113   112    1
     5   113   114    2
     6   112   111    1
     7    77    79   ar
     8    77    75   ar
     9   110   109    2
    10    79    78   ar
    11    75    74   ar
    12   111   109   am
    13   109   108    1
    14    69    70    1
    15    87    85    1
    16    78    76   ar
    17    70    71    1
    18    70    73    1
    19    84    85    1
    20    84    81    1
    21    74    76   ar
    22    74    73    1
    23    86    85    1
    24    80    71   am
    25    80    81    1
    26   108   107    1
    27    71    72    2
    28    55    54    2
    29    81    82    1
    30   102   101    2
    31   107   101   am
    32   106   104   ar
    33   101   100    1
    34    54    53    1
    35    83    82    2
    36    82    88   am
    37   103   104    1
    38   103   100    1
    39    52    53    1
    40   104   105   ar
    41   100    99    1
    42    53    56    1
    43    99    90   am
    44    29    28    2
    45    28    27    1
    46    46    47    2
    47    46    45    1
    48    88    89    1
    49    44    45    1
    50    56    57    1
    51    90    89    1
    52    90    91    2
    53    26    27    1
    54    27    30    1
    55    45    48    1
    56    89    92    1
    57    22    21    1
    58    22    23    2
    59    21    20    1
    60    21    24    1
    61    66    64   ar
    62    66    68   ar
    63    64    63   ar
    64    57    25    1
    65    43    42    2
    66    42    41    1
    67    30    31    1
    68    58    59    1
    69    48    49    1
    70    92    93    1
    71    24    25    1
    72    68    67   ar
    73   118   119    1
    74    63    62    1
    75    63    65   ar
    76    62    59    1
    77    40    41    1
    78    49    50    1
    79    49    51    1
    80    59    60    1
    81    31    32   ar
    82    31    33   ar
    83    32    34   ar
    84    93    94   ar
    85    93    95   ar
    86    67    65   ar
    87   126   124   am
    88    94    96   ar
    89   119   120    1
    90   119   122    1
    91   121   120    2
    92    18    17    1
    93    18    19    2
    94    61    60    2
    95    95    97   ar
    96    17    16    1
    97    34    35   ar
    98    33    36   ar
    99    33    35   ar
   100    96    98   ar
   101   124   123    1
   102   124   125    2
   103   122   123    1
   104    36    38   ar
   105    97    98   ar
   106    35    37   ar
   107    16    11   am
   108    12    11    2
   109    38    39   ar
   110    11    10    1
   111     8     6   ar
   112    37    39   ar
   113   127   128    1
   114     6     7   ar
   115     6     5    1
   116    14    13    1
   117    10     9    1
   118    10    13    1
   119   130   129    2
   120     9     3   am
   121   193   192    1
   122   193   194    2
   123   128   129    1
   124     5     2    1
   125   192   191    1
   126    13    15    1
   127   129   131   am
   128     3     2    1
   129     3     4    2
   130   191   184   am
   131     2     1    1
   132   131   132    1
   133   174   172   am
   134   144   143    1
   135   143   140    1
   136   132   133    1
   137   132   135    1
   138   184   185    2
   139   184   183    1
   140   134   133    2
   141   166   165    2
   142   133   139   am
   143   148   147    2
   144   139   140    1
   145   173   172    2
   146   172   171    1
   147   140   141    1
   148   189   188   ar
   149   183   186    1
   150   183   182    1
   151   157   154    1
   152   135   136    1
   153   186   187    1
   154   165   164    1
   155   165   167   am
   156   136   138    1
   157   136   137    1
   158   154   153    1
   159   154   155    1
   160   142   141    2
   161   141   145   am
   162   164   163    1
   163   147   153   am
   164   147   146    1
   165   178   177    2
   166   188   187    1
   167   188   190   ar
   168   168   171    1
   169   168   167    1
   170   168   169    1
   171   145   146    1
   172   155   156    2
   173   155   158   am
   174   163   160   am
   175   182   177   am
   176   146   149    1
   177   177   176    1
   178   158   159    1
   179   160   161    2
   180   160   159    1
   181   169   170    2
   182   151   150   ar
   183   159   162    1
   184   149   150    1
   185   176   175    1
   186   176   179    1
   187   175   181    1
   188   150   152   ar
   189   179   180    1
   190   180   181    1
