@<TRIPOS>MOLECULE
tmp/1o5xA00.pdb
 96 91 0 0 0
SMALL
GASTEIGER

@<TRIPOS>ATOM
      1  N          8.5730   14.5180   27.7710 N.3     8  ASN8       -0.1240
      2  CA         9.0020   13.4790   26.8570 C.3     8  ASN8        0.1653
      3  C         10.1990   13.9940   26.0900 C.2     8  ASN8        0.2266
      4  O         10.0640   14.7510   25.1120 O.2     8  ASN8       -0.2867
      5  CB         7.8390   13.1310   25.8990 C.3     8  ASN8        0.1155
      6  CG         8.2890   12.0320   24.9360 C.2     8  ASN8        0.2627
      7  OD1        9.3610   11.4550   25.0670 O.2     8  ASN8       -0.2716
      8  ND2        7.4120   11.7130   23.9700 N.am    8  ASN8       -0.0877
      9  N         12.0180   12.3800   24.1710 N.3    10  LYS10      -0.1245
     10  CA        12.1110   11.6700   22.8920 C.3    10  LYS10       0.1561
     11  C         13.5540   11.2400   22.7010 C.2    10  LYS10       0.2260
     12  O         14.2220   10.8500   23.6740 O.2    10  LYS10      -0.2867
     13  CB        11.5520   12.4740   21.6990 C.3    10  LYS10       0.0271
     14  CG        10.0850   12.8930   21.9970 C.3    10  LYS10       0.0035
     15  CD         9.4750   13.5140   20.7410 C.3    10  LYS10       0.0206
     16  CE         8.0110   13.8810   21.0200 C.3    10  LYS10       0.1093
     17  NZ         7.4090   14.4490   19.7810 N.3    10  LYS10      -0.1314
     18  N          2.4970    6.2190   22.0550 N.3    93  HIS93      -0.1226
     19  CA         2.8490    7.5250   21.4500 C.3    93  HIS93       0.1752
     20  C          2.7070    7.4340   19.9490 C.2    93  HIS93       0.2596
     21  O          3.0570    6.4300   19.3350 O.2    93  HIS93      -0.2718
     22  CB         4.2960    7.8780   21.8460 C.3    93  HIS93       0.0759
     23  CG         4.6070    9.3100   21.5150 C.ar   93  HIS93       0.0818
     24  ND1        4.9360    9.7500   20.2310 N.ar   93  HIS93      -0.2268
     25  CD2        4.5830   10.3810   22.3460 C.ar   93  HIS93       0.1154
     26  CE1        5.1240   11.0600   20.3410 C.ar   93  HIS93       0.1986
     27  NE2        4.9090   11.4850   21.5910 N.ar   93  HIS93      -0.2212
     28  N          2.1780    8.5210   19.3400 N.am   94  PHE94      -0.1976
     29  CA         1.9240    8.4450   17.9010 C.3    94  PHE94       0.1639
     30  C          3.1610    8.1140   17.1080 C.2    94  PHE94       0.2290
     31  O          3.0500    7.5460   16.0230 O.2    94  PHE94      -0.2864
     32  CB         1.2390    9.7120   17.4110 C.3    94  PHE94       0.0560
     33  CG         2.1270   10.8370   17.0110 C.ar   94  PHE94      -0.0200
     34  CD1        2.5580   11.0040   15.6930 C.ar   94  PHE94      -0.0042
     35  CD2        2.5670   11.7590   17.9710 C.ar   94  PHE94      -0.0042
     36  CE1        3.4110   12.0380   15.3770 C.ar   94  PHE94      -0.0003
     37  CE2        3.4230   12.8100   17.6310 C.ar   94  PHE94      -0.0003
     38  CZ         3.8520   12.9430   16.3020 C.ar   94  PHE94      -0.0000
     39  N         -3.3840   13.2160   21.7510 N.3   163  GLU163     -0.1245
     40  CA        -2.4510   13.7840   20.7700 C.3   163  GLU163      0.1567
     41  C         -3.2590   14.2170   19.5620 C.2   163  GLU163      0.2260
     42  O         -3.7870   13.3630   18.8310 O.2   163  GLU163     -0.2867
     43  CB        -1.4010   12.7430   20.4080 C.3   163  GLU163      0.0388
     44  CG        -0.6300   12.2540   21.6210 C.3   163  GLU163      0.1160
     45  CD         0.5830   11.4580   21.1890 C.2   163  GLU163      0.3649
     46  OE1        0.3880   10.3440   20.6730 O.co2 163  GLU163     -0.2457
     47  OE2        1.7200   11.9490   21.3330 O.co2 163  GLU163     -0.2457
     48  N         -0.4960   18.2340   14.0600 N.3   168  ILE168     -0.1245
     49  CA         0.9210   17.9650   14.3430 C.3   168  ILE168      0.1561
     50  C          1.4880   17.7620   12.9450 C.2   168  ILE168      0.2260
     51  O          1.1300   16.8450   12.2380 O.2   168  ILE168     -0.2867
     52  CB         1.1580   16.7900   15.2910 C.3   168  ILE168      0.0252
     53  CG1        0.6020   17.0070   16.7180 C.3   168  ILE168      0.0019
     54  CG2        2.6490   16.4390   15.3800 C.3   168  ILE168      0.0019
     55  CD1        0.4290   15.7570   17.5430 C.3   168  ILE168      0.0001
     56  N         -1.4480   16.4320   24.6840 N.3   207  GLY207     -0.1210
     57  CA        -0.1660   16.0260   24.1130 C.3   207  GLY207      0.1956
     58  C          0.0780   16.6900   22.7630 C.2   207  GLY207      0.2612
     59  O          0.9110   16.1140   22.0500 O.2   207  GLY207     -0.2717
     60  N         -0.5710   17.7870   22.4560 N.am  208  GLY208     -0.1942
     61  CA        -0.2000   18.5890   21.2810 C.3   208  GLY208      0.2014
     62  C          0.9440   19.5290   21.7070 C.2   208  GLY208      0.2639
     63  O          1.6100   19.3310   22.7210 O.2   208  GLY208     -0.2714
     64  N          1.1530   20.5360   20.8920 N.am  209  SER209     -0.1949
     65  CA         2.3010   21.4210   21.1260 C.3   209  SER209      0.1924
     66  C          2.0760   22.2820   22.3480 C.2   209  SER209      0.2314
     67  O          1.1330   23.0550   22.3760 O.2   209  SER209     -0.2863
     68  CB         2.3660   22.3530   19.9250 C.3   209  SER209      0.2116
     69  OG         2.8150   21.6490   18.7960 O.3   209  SER209     -0.2180
     70  N          1.7590   16.2210   28.1580 N.3   228  LEU228     -0.1231
     71  CA         2.9640   15.4790   27.8070 C.3   228  LEU228      0.1693
     72  C          3.6800   16.3800   26.8320 C.2   228  LEU228      0.2592
     73  O          3.2140   16.6260   25.7130 O.2   228  LEU228     -0.2718
     74  CB         2.5820   14.1470   27.1740 C.3   228  LEU228      0.0284
     75  CG         3.7730   13.2690   26.7640 C.3   228  LEU228      0.0019
     76  CD1        4.5920   12.8850   27.9940 C.3   228  LEU228      0.0001
     77  CD2        3.2620   12.0330   25.9900 C.3   228  LEU228      0.0001
     78  N          4.8190   16.9290   27.2680 N.am  229  VAL229     -0.1966
     79  CA         5.4920   18.0210   26.5620 C.3   229  VAL229      0.1727
     80  C          6.6940   17.4870   25.7840 C.2   229  VAL229      0.2617
     81  O          7.5020   16.7270   26.3130 O.2   229  VAL229     -0.2715
     82  CB         5.9700   19.0610   27.5890 C.3   229  VAL229      0.0290
     83  CG1        6.6320   20.2390   26.8960 C.3   229  VAL229      0.0023
     84  CG2        4.7680   19.5240   28.4100 C.3   229  VAL229      0.0023
     85  N          6.8050   17.8950   24.5240 N.am  230  GLY230     -0.1940
     86  CA         7.9160   17.4930   23.6880 C.3   230  GLY230      0.2014
     87  C          9.0730   18.4780   23.7490 C.2   230  GLY230      0.2638
     88  O          9.7730   18.5720   24.7620 O.2   230  GLY230     -0.2714
     89  N          9.3580   19.1520   22.6240 N.am  231  ASN231     -0.1972
     90  CA        10.5730   19.9470   22.4980 C.3   231  ASN231      0.1688
     91  C         10.7350   20.9430   23.6300 C.2   231  ASN231      0.2292
     92  O         11.8810   21.2200   24.0440 O.2   231  ASN231     -0.2864
     93  CB        10.4770   20.7430   21.1840 C.3   231  ASN231      0.1181
     94  CG        10.6990   20.0970   19.8660 C.2   231  ASN231      0.2629
     95  OD1       11.2150   18.9990   19.7060 O.2   231  ASN231     -0.2716
     96  ND2       10.3450   20.7600   18.7420 N.am  231  ASN231     -0.0877
@<TRIPOS>BOND
     1    51    50    2
     2    50    49    1
     3    48    49    1
     4    49    52    1
     5    52    54    1
     6    52    53    1
     7    36    34   ar
     8    36    38   ar
     9    34    33   ar
    10    31    30    2
    11    38    37   ar
    12    53    55    1
    13    33    32    1
    14    33    35   ar
    15    30    29    1
    16    32    29    1
    17    37    35   ar
    18    29    28    1
    19    96    94   am
    20    69    68    1
    21    42    41    2
    22    21    20    2
    23    28    20   am
    24    41    40    1
    25    95    94    2
    26    17    16    1
    27    94    93    1
    28    68    65    1
    29    20    19    1
    30    24    26   ar
    31    24    23   ar
    32    26    27   ar
    33    43    40    1
    34    43    44    1
    35    46    45   ar
    36    15    16    1
    37    15    14    1
    38    40    39    1
    39    64    65    1
    40    64    62   am
    41    65    66    1
    42    93    90    1
    43    45    47   ar
    44    45    44    1
    45    61    62    1
    46    61    60    1
    47    19    22    1
    48    19    18    1
    49    23    22    1
    50    23    25   ar
    51    27    25   ar
    52    13    14    1
    53    13    10    1
    54    62    63    2
    55    59    58    2
    56    66    67    2
    57    60    58   am
    58    90    89    1
    59    90    91    1
    60    89    87   am
    61    11    10    1
    62    11    12    2
    63    58    57    1
    64    10     9    1
    65    91    92    2
    66    86    87    1
    67    86    85    1
    68    87    88    2
    69     8     6   am
    70    57    56    1
    71    85    80   am
    72     6     7    2
    73     6     5    1
    74     4     3    2
    75    73    72    2
    76    80    81    2
    77    80    79    1
    78     5     2    1
    79    77    75    1
    80     3     2    1
    81    79    78    1
    82    79    82    1
    83    75    74    1
    84    75    76    1
    85    72    78   am
    86    72    71    1
    87     2     1    1
    88    83    82    1
    89    74    71    1
    90    82    84    1
    91    71    70    1
