@<TRIPOS>MOLECULE
tmp/1o5xB00.pdb
 108 103 0 0 0
SMALL
GASTEIGER

@<TRIPOS>ATOM
      1  N         24.3320  -12.3250   24.4070 N.3     8  ASN8       -0.1240
      2  CA        23.0960  -11.5760   24.1670 C.3     8  ASN8        0.1653
      3  C         22.1440  -11.9570   25.2890 C.2     8  ASN8        0.2266
      4  O         21.4850  -13.0300   25.2610 O.2     8  ASN8       -0.2867
      5  CB        22.4580  -11.9930   22.8300 C.3     8  ASN8        0.1155
      6  CG        21.2020  -11.1860   22.5640 C.2     8  ASN8        0.2627
      7  OD1       20.8140  -10.3050   23.3550 O.2     8  ASN8       -0.2716
      8  ND2       20.5160  -11.4860   21.4640 N.am    8  ASN8       -0.0877
      9  N         19.4150  -10.7420   25.8970 N.3    10  LYS10      -0.1245
     10  CA        18.0060  -10.5670   25.4600 C.3    10  LYS10       0.1561
     11  C         17.2520   -9.8240   26.5560 C.2    10  LYS10       0.2260
     12  O         17.8350   -8.9400   27.1890 O.2    10  LYS10      -0.2867
     13  CB        17.3430  -11.8620   25.0000 C.3    10  LYS10       0.0271
     14  CG        18.1700  -12.5310   23.8880 C.3    10  LYS10       0.0035
     15  CD        17.4370  -13.7390   23.2980 C.3    10  LYS10       0.0206
     16  CE        18.2740  -14.3060   22.1410 C.3    10  LYS10       0.1093
     17  NZ        17.5080  -15.4510   21.5680 N.3    10  LYS10      -0.1314
     18  N         18.8210   -8.8270   14.4530 N.3    93  HIS93      -0.1226
     19  CA        18.5020  -10.0770   15.1670 C.3    93  HIS93       0.1752
     20  C         17.1220  -10.5960   14.7190 C.2    93  HIS93       0.2596
     21  O         16.1840   -9.8210   14.5180 O.2    93  HIS93      -0.2718
     22  CB        18.4710   -9.7950   16.6770 C.3    93  HIS93       0.0759
     23  CG        18.4640  -11.0780   17.4570 C.ar   93  HIS93       0.0818
     24  ND1       17.3460  -11.8720   17.6690 N.ar   93  HIS93      -0.2268
     25  CD2       19.5260  -11.7220   18.0090 C.ar   93  HIS93       0.1154
     26  CE1       17.7360  -12.9300   18.3370 C.ar   93  HIS93       0.1986
     27  NE2       19.0380  -12.8710   18.5610 N.ar   93  HIS93      -0.2212
     28  N         17.0310  -11.9120   14.5760 N.am   94  PHE94      -0.1976
     29  CA        15.7730  -12.4840   14.0930 C.3    94  PHE94       0.1639
     30  C         14.5790  -12.0710   14.9260 C.2    94  PHE94       0.2290
     31  O         13.4980  -11.9640   14.3630 O.2    94  PHE94      -0.2864
     32  CB        15.9260  -14.0010   13.8520 C.3    94  PHE94       0.0560
     33  CG        15.5470  -14.8920   15.0000 C.ar   94  PHE94      -0.0200
     34  CD1       14.2640  -15.4420   15.1300 C.ar   94  PHE94      -0.0042
     35  CD2       16.5160  -15.1660   15.9540 C.ar   94  PHE94      -0.0042
     36  CE1       14.0060  -16.2360   16.2350 C.ar   94  PHE94      -0.0003
     37  CE2       16.2120  -15.9550   17.0590 C.ar   94  PHE94      -0.0003
     38  CZ        14.9410  -16.4870   17.2130 C.ar   94  PHE94      -0.0000
     39  N         22.2930  -16.9330   11.8710 N.3   163  GLU163     -0.1245
     40  CA        21.2200  -17.4610   12.7300 C.3   163  GLU163      0.1567
     41  C         20.4370  -18.5300   11.9460 C.2   163  GLU163      0.2260
     42  O         19.6480  -18.2270   11.0520 O.2   163  GLU163     -0.2867
     43  CB        20.2310  -16.3900   13.2600 C.3   163  GLU163      0.0388
     44  CG        20.9280  -15.2600   14.0490 C.3   163  GLU163      0.1160
     45  CD        19.9610  -14.3500   14.6940 C.2   163  GLU163      0.3649
     46  OE1       19.2560  -13.5760   14.0750 O.co2 163  GLU163     -0.2457
     47  OE2       19.7750  -14.3670   15.9240 O.co2 163  GLU163     -0.2457
     48  N         15.9330  -23.2330   15.1070 N.3   168  ILE168     -0.1245
     49  CA        15.6060  -22.4660   16.2960 C.3   168  ILE168      0.1561
     50  C         14.0780  -22.5740   16.3660 C.2   168  ILE168      0.2260
     51  O         13.4110  -22.1080   15.4480 O.2   168  ILE168     -0.2867
     52  CB        16.0700  -21.0090   16.2750 C.3   168  ILE168      0.0252
     53  CG1       17.5450  -20.8460   16.6910 C.3   168  ILE168      0.0019
     54  CG2       15.2070  -20.1070   17.1380 C.3   168  ILE168      0.0019
     55  CD1       18.5130  -21.5130   15.7380 C.3   168  ILE168      0.0001
     56  N         25.1940  -18.1250   15.4740 N.3   207  GLY207     -0.1210
     57  CA        24.1020  -17.5610   16.2500 C.3   207  GLY207      0.1956
     58  C         22.9270  -18.4870   16.5780 C.2   207  GLY207      0.2612
     59  O         21.8460  -18.1020   17.0290 O.2   207  GLY207     -0.2717
     60  N         23.1040  -19.8010   16.3360 N.am  208  GLY208     -0.1942
     61  CA        22.1330  -20.8440   16.6780 C.3   208  GLY208      0.2014
     62  C         22.3780  -21.1910   18.1450 C.2   208  GLY208      0.2640
     63  O         23.0330  -20.4840   18.8660 O.2   208  GLY208     -0.2714
     64  N         21.8950  -22.3310   18.5910 N.am  209  SER209     -0.1935
     65  CA        21.9150  -22.7240   19.9830 C.3   209  SER209      0.2055
     66  C         23.3260  -23.0210   20.5040 C.2   209  SER209      0.2642
     67  O         23.8870  -24.0810   20.2650 O.2   209  SER209     -0.2714
     68  CB        20.9590  -23.9290   20.1320 C.3   209  SER209      0.2130
     69  OG        19.5950  -23.5350   20.1710 O.3   209  SER209     -0.2179
     70  N         24.0010  -22.1760   21.2540 N.am  210  VAL210     -0.1977
     71  CA        25.3460  -22.4590   21.6890 C.3   210  VAL210      0.1596
     72  C         25.3360  -22.7260   23.1810 C.2   210  VAL210      0.2287
     73  O         24.6710  -22.0160   23.9400 O.2   210  VAL210     -0.2864
     74  CB        26.2470  -21.2690   21.3560 C.3   210  VAL210      0.0276
     75  CG1       27.6610  -21.4800   21.9370 C.3   210  VAL210      0.0022
     76  CG2       26.3440  -21.0920   19.8570 C.3   210  VAL210      0.0022
     77  N         27.2890  -15.6830   18.9140 N.3   228  LEU228     -0.1231
     78  CA        26.3480  -14.8180   19.6320 C.3   228  LEU228      0.1693
     79  C         25.5240  -15.7920   20.4610 C.2   228  LEU228      0.2592
     80  O         24.7980  -16.6120   19.9010 O.2   228  LEU228     -0.2718
     81  CB        25.5110  -14.0280   18.6410 C.3   228  LEU228      0.0284
     82  CG        24.5350  -13.0210   19.3120 C.3   228  LEU228      0.0019
     83  CD1       25.3110  -11.9660   20.1000 C.3   228  LEU228      0.0001
     84  CD2       23.6710  -12.3440   18.2490 C.3   228  LEU228      0.0001
     85  N         25.6850  -15.7400   21.7860 N.am  229  VAL229     -0.1966
     86  CA        25.1210  -16.7430   22.7010 C.3   229  VAL229      0.1727
     87  C         23.9170  -16.1870   23.4320 C.2   229  VAL229      0.2617
     88  O         23.9630  -15.0970   23.9830 O.2   229  VAL229     -0.2715
     89  CB        26.1990  -17.1660   23.7000 C.3   229  VAL229      0.0290
     90  CG1       25.6850  -18.2510   24.6370 C.3   229  VAL229      0.0023
     91  CG2       27.4660  -17.6290   22.9640 C.3   229  VAL229      0.0023
     92  N         22.8500  -16.9300   23.4210 N.am  230  GLY230     -0.1940
     93  CA        21.6030  -16.4750   24.0400 C.3   230  GLY230      0.2014
     94  C         21.5300  -17.0130   25.4500 C.2   230  GLY230      0.2639
     95  O         22.2820  -16.5840   26.3630 O.2   230  GLY230     -0.2714
     96  N         20.6560  -17.9940   25.6660 N.am  231  ASN231     -0.1958
     97  CA        20.3380  -18.3940   27.0390 C.3   231  ASN231      0.1819
     98  C         21.5460  -18.8910   27.8090 C.2   231  ASN231      0.2621
     99  O         21.6260  -18.6330   29.0620 O.2   231  ASN231     -0.2715
    100  CB        19.1570  -19.3750   26.9060 C.3   231  ASN231      0.1195
    101  CG        17.9700  -18.4460   26.4920 C.2   231  ASN231      0.2630
    102  OD1       17.6900  -17.3960   27.1010 O.2   231  ASN231     -0.2716
    103  ND2       17.2890  -18.7890   25.4020 N.am  231  ASN231     -0.0877
    104  N         22.5300  -19.5070   27.2070 N.am  232  ALA232     -0.1977
    105  CA        23.7030  -19.9720   27.9590 C.3   232  ALA232      0.1597
    106  C         24.5360  -18.8080   28.5430 C.2   232  ALA232      0.2287
    107  O         25.3760  -19.0330   29.4170 O.2   232  ALA232     -0.2864
    108  CB        24.5660  -20.8650   27.0500 C.3   232  ALA232      0.0319
@<TRIPOS>BOND
     1    42    41    2
     2    39    40    1
     3    41    40    1
     4    40    43    1
     5    43    44    1
     6    32    29    1
     7    32    33    1
     8    44    45    1
     9    46    45   ar
    10    29    28    1
    11    29    30    1
    12    31    30    2
    13    18    19    1
    14    21    20    2
    15    28    20   am
    16    45    47   ar
    17    20    19    1
    18    33    34   ar
    19    33    35   ar
    20    48    49    1
    21    34    36   ar
    22    19    22    1
    23    51    50    2
    24    56    57    1
    25    55    53    1
    26    35    37   ar
    27    36    38   ar
    28    57    58    1
    29    52    49    1
    30    52    53    1
    31    52    54    1
    32    49    50    1
    33    60    58   am
    34    60    61    1
    35    58    59    2
    36    22    23    1
    37    61    62    1
    38    37    38   ar
    39    23    24   ar
    40    23    25   ar
    41    24    26   ar
    42    25    27   ar
    43    62    64   am
    44    62    63    2
    45    84    82    1
    46    26    27   ar
    47    64    65    1
    48    81    82    1
    49    81    78    1
    50    77    78    1
    51    82    83    1
    52    78    79    1
    53    76    74    1
    54    80    79    2
    55    65    68    1
    56    65    66    1
    57    68    69    1
    58    67    66    2
    59    79    85   am
    60    66    70   am
    61    70    71    1
    62    74    71    1
    63    74    75    1
    64     8     6   am
    65    17    16    1
    66    71    72    1
    67    85    86    1
    68    16    15    1
    69     6     5    1
    70     6     7    2
    71    86    87    1
    72    86    89    1
    73     5     2    1
    74    91    89    1
    75    72    73    2
    76    15    14    1
    77    92    87   am
    78    92    93    1
    79    87    88    2
    80    89    90    1
    81    14    13    1
    82    93    94    1
    83     2     1    1
    84     2     3    1
    85    13    10    1
    86     4     3    2
    87   103   101   am
    88    94    96   am
    89    94    95    2
    90    10     9    1
    91    10    11    1
    92    96    97    1
    93   101   100    1
    94   101   102    2
    95    11    12    2
    96   100    97    1
    97    97    98    1
    98   108   105    1
    99   104    98   am
   100   104   105    1
   101    98    99    2
   102   105   106    1
   103   106   107    2
