@<TRIPOS>MOLECULE
tmp/1o68D00.pdb
 115 104 0 0 0
SMALL
GASTEIGER

@<TRIPOS>ATOM
      1  N         55.1060   87.9110   66.4510 N.3    20  THR20      -0.1218
      2  CA        55.2980   87.0030   65.3210 C.3    20  THR20       0.1862
      3  C         56.7940   86.7310   65.1750 C.2    20  THR20       0.2287
      4  O         57.6220   87.5520   65.6100 O.2    20  THR20      -0.2866
      5  CB        54.7190   87.5040   63.9970 C.3    20  THR20       0.1770
      6  OG1       55.3850   88.6820   63.5480 O.3    20  THR20      -0.2211
      7  CG2       53.2220   87.7690   64.1410 C.3    20  THR20       0.0375
      8  N         54.4150   83.6640   67.4680 N.3    37  LEU37      -0.1245
      9  CA        53.4340   83.3670   66.4430 C.3    37  LEU37       0.1561
     10  C         54.0360   83.2540   65.0450 C.2    37  LEU37       0.2260
     11  O         54.5070   84.2360   64.4810 O.2    37  LEU37      -0.2867
     12  CB        52.3140   84.4210   66.4170 C.3    37  LEU37       0.0270
     13  CG        51.3200   84.1960   65.2250 C.3    37  LEU37       0.0019
     14  CD1       50.6410   82.8430   65.3800 C.3    37  LEU37       0.0001
     15  CD2       50.2900   85.3050   65.1800 C.3    37  LEU37       0.0001
     16  N         53.1350   83.4980   61.9480 N.3    39  GLY39      -0.1210
     17  CA        51.8730   83.8210   61.2850 C.3    39  GLY39       0.1956
     18  C         51.9240   83.8110   59.7870 C.2    39  GLY39       0.2612
     19  O         52.9720   84.0530   59.1690 O.2    39  GLY39      -0.2717
     20  N         50.7360   83.7000   59.1670 N.am   40  ASP40      -0.1959
     21  CA        50.6780   83.7280   57.7000 C.3    40  ASP40       0.1840
     22  C         50.9050   85.1610   57.2280 C.2    40  ASP40       0.2622
     23  O         51.1490   85.4290   56.0440 O.2    40  ASP40      -0.2715
     24  CB        49.4170   83.1050   57.1440 C.3    40  ASP40       0.1450
     25  CG        48.1640   83.8880   57.4720 C.2    40  ASP40       0.3671
     26  OD1       48.2210   84.8520   58.2640 O.co2  40  ASP40      -0.2456
     27  OD2       47.1240   83.5060   56.8900 O.co2  40  ASP40      -0.2456
     28  N         51.0480   86.0870   58.1850 N.am   41  SER41      -0.1950
     29  CA        51.4760   87.4440   57.9450 C.3    41  SER41       0.1924
     30  C         52.8610   87.4080   57.2530 C.2    41  SER41       0.2314
     31  O         53.2510   88.3770   56.5950 O.2    41  SER41      -0.2863
     32  CB        51.5960   88.2850   59.2090 C.3    41  SER41       0.2116
     33  OG        52.4150   87.6040   60.1630 O.3    41  SER41      -0.2180
     34  N         50.1800   79.4250   62.3550 N.3    76  ASP76      -0.1239
     35  CA        48.9160   79.6340   61.6610 C.3    76  ASP76       0.1674
     36  C         48.6080   78.5380   60.6390 C.2    76  ASP76       0.2266
     37  O         49.5180   78.0570   59.9720 O.2    76  ASP76      -0.2867
     38  CB        49.0180   80.9340   60.8420 C.3    76  ASP76       0.1410
     39  CG        48.4710   82.1330   61.5650 C.2    76  ASP76       0.3668
     40  OD1       47.7080   81.9720   62.5290 O.co2  76  ASP76      -0.2456
     41  OD2       48.8190   83.2650   61.1410 O.co2  76  ASP76      -0.2456
     42  N         46.7160   78.0880   64.9290 N.3   103  LYS103     -0.1245
     43  CA        45.7400   79.1640   64.9490 C.3   103  LYS103      0.1561
     44  C         44.8910   79.0680   63.6800 C.2   103  LYS103      0.2260
     45  O         45.4310   78.8260   62.5920 O.2   103  LYS103     -0.2867
     46  CB        46.3750   80.5390   65.1360 C.3   103  LYS103      0.0271
     47  CG        45.4040   81.7050   64.9480 C.3   103  LYS103      0.0035
     48  CD        45.9050   82.9630   65.6600 C.3   103  LYS103      0.0206
     49  CE        46.8260   83.7850   64.7900 C.3   103  LYS103      0.1093
     50  NZ        46.2040   84.1470   63.4790 N.3   103  LYS103     -0.1314
     51  N         41.3310   80.8480   61.4810 N.3   105  GLU105     -0.1245
     52  CA        40.4360   81.9970   61.4210 C.3   105  GLU105      0.1567
     53  C         38.9940   81.5590   61.2060 C.2   105  GLU105      0.2260
     54  O         38.7530   80.6210   60.4360 O.2   105  GLU105     -0.2867
     55  CB        40.8270   82.9510   60.2830 C.3   105  GLU105      0.0388
     56  CG        42.2070   83.5830   60.3980 C.3   105  GLU105      0.1160
     57  CD        42.5570   84.5060   59.2510 C.2   105  GLU105      0.3649
     58  OE1       43.6570   85.0740   59.2670 O.co2 105  GLU105     -0.2457
     59  OE2       41.7530   84.7520   58.3120 O.co2 105  GLU105     -0.2457
     60  N         40.9400   82.5630   65.9450 N.3   125  HIS125     -0.1241
     61  CA        41.0980   83.9630   65.5600 C.3   125  HIS125      0.1621
     62  C         39.7820   84.5160   65.0120 C.2   125  HIS125      0.2264
     63  O         39.2510   84.0610   64.0140 O.2   125  HIS125     -0.2867
     64  CB        42.2060   84.0620   64.5240 C.3   125  HIS125      0.0745
     65  CG        42.5530   85.4090   64.0090 C.ar  125  HIS125      0.0817
     66  ND1       43.7690   85.6580   63.3780 N.ar  125  HIS125     -0.2268
     67  CD2       41.8800   86.5830   63.9920 C.ar  125  HIS125      0.1154
     68  CE1       43.8080   86.9260   63.0150 C.ar  125  HIS125      0.1986
     69  NE2       42.6700   87.5000   63.3760 N.ar  125  HIS125     -0.2212
     70  N         42.1330   88.2940   58.3700 N.3   130  PRO130     -0.2116
     71  CA        42.8210   88.6920   57.1620 C.3   130  PRO130      0.1372
     72  C         42.7510   87.7750   55.9790 C.2   130  PRO130      0.2244
     73  O         42.8600   88.2620   54.8270 O.2   130  PRO130     -0.2868
     74  CB        44.2670   89.0020   57.5980 C.3   130  PRO130      0.0268
     75  CG        44.1060   89.3510   59.0600 C.3   130  PRO130      0.0207
     76  CD        43.0280   88.4060   59.5500 C.3   130  PRO130      0.0892
     77  N         41.8020   84.6300   69.8700 N.3   167  LEU167     -0.1245
     78  CA        42.4710   85.8680   69.4780 C.3   167  LEU167      0.1561
     79  C         41.4700   86.7930   68.7880 C.2   167  LEU167      0.2260
     80  O         40.7090   86.3330   67.9490 O.2   167  LEU167     -0.2867
     81  CB        43.6570   85.5440   68.5860 C.3   167  LEU167      0.0270
     82  CG        44.5920   86.6850   68.1930 C.3   167  LEU167      0.0019
     83  CD1       46.0060   86.1540   68.0610 C.3   167  LEU167      0.0001
     84  CD2       44.1120   87.3410   66.8970 C.3   167  LEU167      0.0001
     85  N         41.1330   90.4420   66.6200 N.3   168  GLU168     -0.1245
     86  CA        41.8100   91.4510   65.8310 C.3   168  GLU168      0.1567
     87  C         40.8620   92.5820   65.4360 C.2   168  GLU168      0.2260
     88  O         39.7840   92.2820   64.9080 O.2   168  GLU168     -0.2867
     89  CB        42.3850   90.7940   64.5580 C.3   168  GLU168      0.0388
     90  CG        43.0450   91.8100   63.6340 C.3   168  GLU168      0.1160
     91  CD        44.0100   91.1940   62.6420 C.2   168  GLU168      0.3649
     92  OE1       44.5750   91.9810   61.8520 O.co2 168  GLU168     -0.2457
     93  OE2       44.2260   89.9670   62.6070 O.co2 168  GLU168     -0.2457
     94  N         44.9250   92.3200   69.2290 N.3   189  ILE189     -0.1245
     95  CA        45.6830   93.1510   68.3240 C.3   189  ILE189      0.1561
     96  C         44.6400   94.1360   67.7570 C.2   189  ILE189      0.2260
     97  O         43.6270   93.6770   67.2100 O.2   189  ILE189     -0.2867
     98  CB        46.4960   92.4740   67.2420 C.3   189  ILE189      0.0252
     99  CG1       47.1640   93.5400   66.3540 C.3   189  ILE189      0.0019
    100  CG2       45.6600   91.5110   66.3770 C.3   189  ILE189      0.0019
    101  CD1       48.1210   92.9290   65.3170 C.3   189  ILE189      0.0001
    102  N         49.4270   90.9830   70.8300 N.3   199  VAL199     -0.1245
    103  CA        50.2680   90.4830   69.7600 C.3   199  VAL199      0.1561
    104  C         50.4710   91.6030   68.7260 C.2   199  VAL199      0.2260
    105  O         49.5620   92.3820   68.5190 O.2   199  VAL199     -0.2867
    106  CB        49.7710   89.2600   68.9920 C.3   199  VAL199      0.0252
    107  CG1       48.4120   89.4480   68.3070 C.3   199  VAL199      0.0019
    108  CG2       50.7820   88.8480   67.9060 C.3   199  VAL199      0.0019
    109  N         52.8040   92.2820   64.7970 N.3   201  VAL201     -0.1245
    110  CA        53.6720   91.6630   63.7640 C.3   201  VAL201      0.1561
    111  C         55.0780   92.1920   64.0310 C.2   201  VAL201      0.2260
    112  O         55.2370   93.4140   64.1230 O.2   201  VAL201     -0.2867
    113  CB        53.1850   92.0050   62.3520 C.3   201  VAL201      0.0252
    114  CG1       54.2050   91.6680   61.2710 C.3   201  VAL201      0.0019
    115  CG2       51.8880   91.2200   62.0480 C.3   201  VAL201      0.0019
@<TRIPOS>BOND
     1    73    72    2
     2    72    71    1
     3    23    22    2
     4    31    30    2
     5    27    25   ar
     6    24    25    1
     7    24    21    1
     8    71    74    1
     9    71    70    1
    10    22    21    1
    11    22    28   am
    12    30    29    1
    13    25    26   ar
    14    74    75    1
    15    21    20    1
    16    29    28    1
    17    29    32    1
    18    59    57   ar
    19    70    76    1
    20    75    76    1
    21    20    18   am
    22    19    18    2
    23    32    33    1
    24    57    58   ar
    25    57    56    1
    26    18    17    1
    27    37    36    2
    28    55    56    1
    29    55    52    1
    30    54    53    2
    31    36    35    1
    32    38    39    1
    33    38    35    1
    34    41    39   ar
    35    53    52    1
    36   114   113    1
    37    17    16    1
    38    52    51    1
    39    39    40   ar
    40    35    34    1
    41    92    91   ar
    42   115   113    1
    43   113   110    1
    44    45    44    2
    45    93    91   ar
    46    91    90    1
    47    68    69   ar
    48    68    66   ar
    49    69    67   ar
    50    66    65   ar
    51    50    49    1
    52     6     5    1
    53    90    89    1
    54    44    43    1
    55   110   111    1
    56   110   109    1
    57    67    65   ar
    58     5     7    1
    59     5     2    1
    60    65    64    1
    61    63    62    2
    62   111   112    2
    63    11    10    2
    64    64    61    1
    65    89    86    1
    66    49    48    1
    67    88    87    2
    68    42    43    1
    69    47    46    1
    70    47    48    1
    71    43    46    1
    72    62    61    1
    73    10     9    1
    74     3     2    1
    75     3     4    2
    76    15    13    1
    77    13    14    1
    78    13    12    1
    79   101    99    1
    80     2     1    1
    81    87    86    1
    82    61    60    1
    83    86    85    1
    84    99    98    1
    85   100    98    1
    86    12     9    1
    87     9     8    1
    88    84    82    1
    89    97    96    2
    90    98    95    1
    91    96    95    1
    92   108   106    1
    93    80    79    2
    94    83    82    1
    95    82    81    1
    96   107   106    1
    97    95    94    1
    98   105   104    2
    99    81    78    1
   100   104   103    1
   101    79    78    1
   102   106   103    1
   103    78    77    1
   104   103   102    1
