@<TRIPOS>MOLECULE
tmp/1o69B00.pdb
 138 131 0 0 0
SMALL
GASTEIGER

@<TRIPOS>ATOM
      1  N         54.0590   51.2960   -3.3280 N.3    38  SER38      -0.1202
      2  CA        54.7830   52.0840   -4.3420 C.3    38  SER38       0.2020
      3  C         54.9600   53.5170   -3.8960 C.2    38  SER38       0.2619
      4  O         54.2480   53.9770   -2.9760 O.2    38  SER38      -0.2717
      5  CB        54.0040   52.0780   -5.6950 C.3    38  SER38       0.2103
      6  OG        52.8120   52.8410   -5.5640 O.3    38  SER38      -0.2182
      7  N         55.8720   54.2460   -4.5480 N.am   39  ALA39      -0.1965
      8  CA        56.0040   55.6810   -4.2810 C.3    39  ALA39       0.1728
      9  C         54.7660   56.4260   -4.7450 C.2    39  ALA39       0.2616
     10  O         54.3890   57.4190   -4.1580 O.2    39  ALA39      -0.2715
     11  CB        57.2630   56.2450   -5.0030 C.3    39  ALA39       0.0334
     12  N         54.1200   55.9440   -5.8180 N.am   40  THR40      -0.1951
     13  CA        52.9030   56.5790   -6.3060 C.3    40  THR40       0.1897
     14  C         51.8060   56.5360   -5.2270 C.2    40  THR40       0.2313
     15  O         51.1100   57.5450   -4.9600 O.2    40  THR40      -0.2863
     16  CB        52.4440   55.8730   -7.6240 C.3    40  THR40       0.1794
     17  OG1       53.3970   56.1420   -8.6480 O.3    40  THR40      -0.2208
     18  CG2       51.1610   56.4950   -8.1850 C.3    40  THR40       0.0378
     19  N         52.6610   59.0940   -2.5380 N.3    43  LEU43      -0.1245
     20  CA        52.2520   60.4320   -2.9950 C.3    43  LEU43       0.1561
     21  C         50.7220   60.6120   -2.9810 C.2    43  LEU43       0.2260
     22  O         50.2260   61.6900   -2.5990 O.2    43  LEU43      -0.2867
     23  CB        52.8310   60.7580   -4.3860 C.3    43  LEU43       0.0270
     24  CG        54.3620   60.9510   -4.4420 C.3    43  LEU43       0.0019
     25  CD1       54.8860   60.8000   -5.8500 C.3    43  LEU43       0.0001
     26  CD2       54.7690   62.3810   -3.8670 C.3    43  LEU43       0.0001
     27  N         60.0270   65.3340  -14.7520 N.3    64  THR64      -0.1203
     28  CA        59.7950   64.2380  -13.8240 C.3    64  THR64       0.1994
     29  C         59.1750   63.0350  -14.5630 C.2    64  THR64       0.2617
     30  O         58.9540   63.0910  -15.7810 O.2    64  THR64      -0.2717
     31  CB        58.8840   64.7270  -12.6430 C.3    64  THR64       0.1784
     32  OG1       58.8780   63.7360  -11.5900 O.3    64  THR64      -0.2211
     33  CG2       57.3730   64.8920  -13.0880 C.3    64  THR64       0.0376
     34  N         58.8900   61.9750  -13.8120 N.am   65  PHE65      -0.1975
     35  CA        58.1720   60.7730  -14.2760 C.3    65  PHE65       0.1639
     36  C         56.7200   60.9980  -13.9170 C.2    65  PHE65       0.2290
     37  O         56.4000   61.5630  -12.8640 O.2    65  PHE65      -0.2864
     38  CB        58.7530   59.5770  -13.4880 C.3    65  PHE65       0.0560
     39  CG        58.1630   58.2010  -13.8050 C.ar   65  PHE65      -0.0200
     40  CD1       57.5090   57.9030  -15.0020 C.ar   65  PHE65      -0.0042
     41  CD2       58.3590   57.1740  -12.8780 C.ar   65  PHE65      -0.0042
     42  CE1       57.0140   56.6120  -15.2310 C.ar   65  PHE65      -0.0003
     43  CE2       57.8530   55.8660  -13.1050 C.ar   65  PHE65      -0.0003
     44  CZ        57.1950   55.6010  -14.2720 C.ar   65  PHE65      -0.0000
     45  N         54.6380   59.0650  -12.7860 N.3    67  ALA67      -0.1231
     46  CA        54.2290   58.3920  -11.5420 C.3    67  ALA67       0.1694
     47  C         54.1780   59.3790  -10.3880 C.2    67  ALA67       0.2592
     48  O         53.4300   59.1610   -9.4140 O.2    67  ALA67      -0.2718
     49  CB        55.1730   57.2310  -11.1970 C.3    67  ALA67       0.0304
     50  N         54.8990   60.5010  -10.5240 N.am   68  SER68      -0.1952
     51  CA        54.9790   61.4700   -9.4390 C.3    68  SER68       0.1924
     52  C         53.7640   62.3810   -9.4120 C.2    68  SER68       0.2314
     53  O         53.4420   62.9670   -8.3720 O.2    68  SER68      -0.2863
     54  CB        56.2400   62.3020   -9.6030 C.3    68  SER68       0.2116
     55  OG        57.3390   61.3690   -9.4940 O.3    68  SER68      -0.2180
     56  N         59.8870   67.1180   -7.2450 N.3   112  THR112     -0.1203
     57  CA        60.7930   66.0100   -7.5430 C.3   112  THR112      0.1994
     58  C         62.2700   66.4090   -7.3790 C.2   112  THR112      0.2618
     59  O         62.6660   67.5290   -7.7060 O.2   112  THR112     -0.2717
     60  CB        60.5470   65.5690   -8.9920 C.3   112  THR112      0.1784
     61  OG1       59.2320   65.0220   -9.0950 O.3   112  THR112     -0.2211
     62  CG2       61.5590   64.4070   -9.4230 C.3   112  THR112      0.0376
     63  N         63.0750   65.5090   -6.8240 N.am  113  HIS113     -0.1961
     64  CA        64.5390   65.6490   -6.7990 C.3   113  HIS113      0.1787
     65  C         65.0730   64.7300   -7.8940 C.2   113  HIS113      0.2620
     66  O         65.3060   63.5370   -7.6630 O.2   113  HIS113     -0.2715
     67  CB        65.1020   65.2140   -5.4500 C.3   113  HIS113      0.0785
     68  CG        64.6600   66.0800   -4.2990 C.ar  113  HIS113      0.0821
     69  ND1       65.0530   67.3900   -4.1610 N.ar  113  HIS113     -0.2267
     70  CD2       63.8480   65.8220   -3.2530 C.ar  113  HIS113      0.1154
     71  CE1       64.5190   67.8990   -3.0700 C.ar  113  HIS113      0.1986
     72  NE2       63.7990   66.9630   -2.4900 N.ar  113  HIS113     -0.2212
     73  N         65.2530   65.2990   -9.0900 N.am  114  LEU114     -0.1977
     74  CA        65.4630   64.4860  -10.2760 C.3   114  LEU114      0.1596
     75  C         66.8620   63.8680  -10.3820 C.2   114  LEU114      0.2287
     76  O         67.8870   64.5420  -10.1360 O.2   114  LEU114     -0.2864
     77  CB        65.1280   65.2900  -11.5500 C.3   114  LEU114      0.0297
     78  CG        64.7170   64.4310  -12.7420 C.3   114  LEU114      0.0022
     79  CD1       63.3310   63.8310  -12.4950 C.3   114  LEU114      0.0001
     80  CD2       64.7310   65.2910  -14.0250 C.3   114  LEU114      0.0001
     81  N         58.9950   64.4780   -3.6180 N.3   138  ASP138     -0.1239
     82  CA        59.1240   63.2360   -4.3610 C.3   138  ASP138      0.1674
     83  C         60.6210   62.9280   -4.4510 C.2   138  ASP138      0.2266
     84  O         61.3460   63.3980   -5.3240 O.2   138  ASP138     -0.2867
     85  CB        58.4290   63.3550   -5.7210 C.3   138  ASP138      0.1410
     86  CG        58.9130   62.3040   -6.6950 C.2   138  ASP138      0.3668
     87  OD1       59.2490   61.1920   -6.2250 O.co2 138  ASP138     -0.2456
     88  OD2       59.0480   62.5660   -7.9200 O.co2 138  ASP138     -0.2456
     89  N         61.7400   59.9020   -4.8270 N.3   140  ALA140     -0.1231
     90  CA        61.7570   58.4880   -5.3210 C.3   140  ALA140      0.1694
     91  C         63.1370   58.0420   -5.8250 C.2   140  ALA140      0.2591
     92  O         63.5040   56.8760   -5.6560 O.2   140  ALA140     -0.2718
     93  CB        60.6670   58.2290   -6.4270 C.3   140  ALA140      0.0304
     94  N         63.8720   58.9440   -6.4690 N.am  141  GLU141     -0.1979
     95  CA        65.2040   58.6090   -6.9850 C.3   141  GLU141      0.1602
     96  C         66.3120   59.1600   -6.0740 C.2   141  GLU141      0.2287
     97  O         67.4960   59.1570   -6.4540 O.2   141  GLU141     -0.2864
     98  CB        65.4420   59.2830   -8.3580 C.3   141  GLU141      0.0415
     99  CG        64.4340   59.0230   -9.4610 C.3   141  GLU141      0.1163
    100  CD        65.0180   59.3770  -10.8270 C.2   141  GLU141      0.3649
    101  OE1       64.8540   60.5550  -11.3020 O.co2 141  GLU141     -0.2457
    102  OE2       65.6830   58.4550  -11.4180 O.co2 141  GLU141     -0.2457
    103  N         61.4210   55.5460   -3.1300 N.3   162  SER162     -0.1217
    104  CA        61.0380   54.3720   -3.9190 C.3   162  SER162      0.1889
    105  C         62.1870   53.3780   -3.8920 C.2   162  SER162      0.2288
    106  O         63.3370   53.7710   -3.6340 O.2   162  SER162     -0.2866
    107  CB        60.8250   54.7620   -5.3770 C.3   162  SER162      0.2089
    108  OG        60.3280   53.6390   -6.0960 O.3   162  SER162     -0.2183
    109  N         63.4100   51.1800   -9.0700 N.3   165  GLY165     -0.1210
    110  CA        63.6040   51.6520  -10.4340 C.3   165  GLY165      0.1956
    111  C         62.3780   51.4190  -11.2850 C.2   165  GLY165      0.2611
    112  O         61.3380   50.9940  -10.7730 O.2   165  GLY165     -0.2717
    113  N         62.5090   51.6570  -12.5860 N.am  166  ASN166     -0.1974
    114  CA        61.3470   51.9290  -13.4380 C.3   166  ASN166      0.1688
    115  C         61.0130   50.9730  -14.5900 C.2   166  ASN166      0.2292
    116  O         60.1240   51.2690  -15.4030 O.2   166  ASN166     -0.2864
    117  CB        61.4070   53.3870  -13.9030 C.3   166  ASN166      0.1181
    118  CG        61.2810   54.3390  -12.7370 C.2   166  ASN166      0.2629
    119  OD1       61.9820   55.3480  -12.6360 O.2   166  ASN166     -0.2716
    120  ND2       60.4090   53.9800  -11.8090 N.am  166  ASN166     -0.0877
    121  N         58.0650   48.6940   -3.8330 N.3   174  GLY174     -0.1225
    122  CA        57.8200   49.3350   -2.5490 C.3   174  GLY174      0.1811
    123  C         58.0550   50.8320   -2.5790 C.2   174  GLY174      0.2280
    124  O         58.7740   51.3850   -3.4380 O.2   174  GLY174     -0.2866
    125  N         64.0130   62.0900  -18.7560 N.3   315  TRP315     -0.1241
    126  CA        62.5790   62.2180  -18.6520 C.3   315  TRP315      0.1605
    127  C         62.0740   63.2570  -19.6390 C.2   315  TRP315      0.2264
    128  O         62.7100   64.2900  -19.8450 O.2   315  TRP315     -0.2867
    129  CB        62.1650   62.6550  -17.1940 C.3   315  TRP315      0.0550
    130  CG        62.5400   61.6000  -16.1530 C.ar  315  TRP315      0.0003
    131  CD1       63.5420   61.6700  -15.2110 C.ar  315  TRP315      0.0946
    132  CD2       61.9410   60.3110  -16.0020 C.ar  315  TRP315      0.0152
    133  NE1       63.5800   60.5140  -14.4610 N.ar  315  TRP315     -0.2442
    134  CE2       62.6180   59.6530  -14.9280 C.ar  315  TRP315      0.0810
    135  CE3       60.8910   59.6370  -16.6620 C.ar  315  TRP315      0.0012
    136  CZ2       62.2800   58.3650  -14.4950 C.ar  315  TRP315      0.0191
    137  CZ3       60.5660   58.3190  -16.2490 C.ar  315  TRP315      0.0001
    138  CH2       61.2700   57.7040  -15.1660 C.ar  315  TRP315      0.0015
@<TRIPOS>BOND
     1   128   127    2
     2   127   126    1
     3   125   126    1
     4   126   129    1
     5   129   130    1
     6   135   137   ar
     7   135   132   ar
     8   137   138   ar
     9   130   132   ar
    10   130   131   ar
    11   132   134   ar
    12    30    29    2
    13   116   115    2
    14    42    40   ar
    15    42    44   ar
    16   131   133   ar
    17   138   136   ar
    18    40    39   ar
    19   134   136   ar
    20   134   133   ar
    21    27    28    1
    22   115   114    1
    23    29    28    1
    24    29    34   am
    25    35    36    1
    26    35    34    1
    27    35    38    1
    28    44    43   ar
    29    80    78    1
    30    36    37    2
    31   117   114    1
    32   117   118    1
    33    28    31    1
    34    39    38    1
    35    39    41   ar
    36   114   113    1
    37    43    41   ar
    38    33    31    1
    39    45    46    1
    40    78    79    1
    41    78    77    1
    42   118   119    2
    43   118   120   am
    44    31    32    1
    45   113   111   am
    46    77    74    1
    47    46    49    1
    48    46    47    1
    49   102   100   ar
    50   101   100   ar
    51   111   112    2
    52   111   110    1
    53   100    99    1
    54    50    47   am
    55    50    51    1
    56   110   109    1
    57    47    48    2
    58    75    74    1
    59    75    76    2
    60    74    73    1
    61    54    55    1
    62    54    51    1
    63    99    98    1
    64    51    52    1
    65    62    60    1
    66    52    53    2
    67    61    60    1
    68    73    65   am
    69    60    57    1
    70    17    16    1
    71    98    95    1
    72    18    16    1
    73    88    86   ar
    74    65    66    2
    75    65    64    1
    76    59    58    2
    77    16    13    1
    78    57    58    1
    79    57    56    1
    80    58    63   am
    81    95    94    1
    82    95    96    1
    83    63    64    1
    84    64    67    1
    85    86    87   ar
    86    86    85    1
    87    94    91   am
    88    97    96    2
    89    93    90    1
    90    13    12    1
    91    13    14    1
    92   108   107    1
    93    25    24    1
    94    91    92    2
    95    91    90    1
    96    12     9   am
    97    85    82    1
    98     5     6    1
    99     5     2    1
   100    67    68    1
   101   107   104    1
   102    84    83    2
   103    90    89    1
   104    14    15    2
   105    11     8    1
   106     9     8    1
   107     9    10    2
   108     7     8    1
   109     7     3   am
   110    83    82    1
   111    24    23    1
   112    24    26    1
   113    23    20    1
   114    82    81    1
   115     2     3    1
   116     2     1    1
   117    68    69   ar
   118    68    70   ar
   119    69    71   ar
   120   104   105    1
   121   104   103    1
   122     3     4    2
   123   105   106    2
   124   121   122    1
   125   124   123    2
   126    70    72   ar
   127    71    72   ar
   128    20    21    1
   129    20    19    1
   130    21    22    2
   131   123   122    1
