@<TRIPOS>MOLECULE
tmp/1o6bA00.pdb
 201 193 0 0 0
SMALL
GASTEIGER

@<TRIPOS>ATOM
      1  N        126.5020   82.1600  126.1950 N.3     6  CYS6       -0.1221
      2  CA       127.1660   81.0870  125.4740 C.3     6  CYS6        0.1794
      3  C        126.4200   79.7770  125.7710 C.2     6  CYS6        0.2443
      4  O        126.6960   79.1500  126.7960 O.2     6  CYS6       -0.2733
      5  CB       128.6090   80.8620  125.9600 C.3     6  CYS6        0.0970
      6  SG       129.6830   80.2140  124.6490 S.3     6  CYS6       -0.0800
      7  N        125.5040   79.3960  124.9200 N.am    7  PRO7       -0.2718
      8  CA       124.6900   78.2080  125.1700 C.3     7  PRO7        0.1535
      9  C        125.2650   76.9920  124.4840 C.2     7  PRO7        0.2599
     10  O        125.9970   77.1340  123.5000 O.2     7  PRO7       -0.2715
     11  CB       123.3720   78.6120  124.4860 C.3     7  PRO7        0.0310
     12  CG       123.8320   79.3550  123.2730 C.3     7  PRO7        0.0237
     13  CD       125.0920   80.0920  123.6770 C.3     7  PRO7        0.0939
     14  N        124.8800   75.8100  124.9280 N.am    8  GLY8       -0.1941
     15  CA       125.3940   74.5960  124.2900 C.3     8  GLY8        0.2014
     16  C        125.0020   73.3980  125.1500 C.2     8  GLY8        0.2640
     17  O        124.4830   73.5850  126.2570 O.2     8  GLY8       -0.2714
     18  N        125.1250   72.2100  124.5580 N.am    9  SER9       -0.1935
     19  CA       124.8190   71.0300  125.4220 C.3     9  SER9        0.2055
     20  C        126.0670   70.7240  126.2530 C.2     9  SER9        0.2643
     21  O        125.9480   70.2320  127.3670 O.2     9  SER9       -0.2714
     22  CB       124.4210   69.8650  124.5220 C.3     9  SER9        0.2130
     23  OG       125.1820   69.9500  123.3310 O.3     9  SER9       -0.2179
     24  N        127.2380   71.1520  125.7820 N.am   10  PHE10      -0.1959
     25  CA       128.5080   70.9400  126.4850 C.3    10  PHE10       0.1771
     26  C        128.5010   69.5390  127.1090 C.2    10  PHE10       0.2619
     27  O        128.5710   69.4100  128.3340 O.2    10  PHE10      -0.2715
     28  CB       128.6760   71.9820  127.5950 C.3    10  PHE10       0.0574
     29  CG       128.6800   73.4040  127.1160 C.ar   10  PHE10      -0.0200
     30  CD1      127.6950   74.2930  127.5450 C.ar   10  PHE10      -0.0042
     31  CD2      129.6550   73.8540  126.2510 C.ar   10  PHE10      -0.0042
     32  CE1      127.6940   75.6030  127.0900 C.ar   10  PHE10      -0.0003
     33  CE2      129.6640   75.1740  125.8060 C.ar   10  PHE10      -0.0003
     34  CZ       128.6720   76.0420  126.2280 C.ar   10  PHE10      -0.0000
     35  N        128.5840   68.5180  126.2640 N.am   11  ASP11      -0.1971
     36  CA       128.4980   67.1340  126.7160 C.3    11  ASP11       0.1709
     37  C        129.6150   66.2400  126.2740 C.2    11  ASP11       0.2293
     38  O        129.4200   65.3790  125.3880 O.2    11  ASP11      -0.2864
     39  CB       127.1480   66.5960  126.1390 C.3    11  ASP11       0.1436
     40  CG       126.8060   65.1880  126.5620 C.2    11  ASP11       0.3671
     41  OD1      126.4880   64.3610  125.6590 O.co2  11  ASP11      -0.2456
     42  OD2      126.8450   64.8860  127.7790 O.co2  11  ASP11      -0.2456
     43  N        134.7280   70.7960  126.2000 N.3    14  THR14      -0.1218
     44  CA       136.0480   70.4500  125.6860 C.3    14  THR14       0.1862
     45  C        136.9070   71.7240  125.6300 C.2    14  THR14       0.2287
     46  O        136.3650   72.8210  125.7650 O.2    14  THR14      -0.2866
     47  CB       136.0040   69.9110  124.2340 C.3    14  THR14       0.1770
     48  OG1      135.8480   71.0150  123.3240 O.3    14  THR14      -0.2211
     49  CG2      134.8540   68.9410  124.0230 C.3    14  THR14       0.0375
     50  N        137.8960   73.0440  122.9980 N.3    16  GLY16      -0.1210
     51  CA       137.3410   73.8360  121.8680 C.3    16  GLY16       0.1956
     52  C        136.2070   74.7210  122.3990 C.2    16  GLY16       0.2611
     53  O        136.1600   75.9040  122.0680 O.2    16  GLY16      -0.2717
     54  N        135.3590   74.2020  123.2880 N.am   17  HIS17      -0.1975
     55  CA       134.3080   75.0080  123.8620 C.3    17  HIS17       0.1656
     56  C        134.8940   76.1090  124.7500 C.2    17  HIS17       0.2291
     57  O        134.4210   77.2450  124.7280 O.2    17  HIS17      -0.2864
     58  CB       133.3730   74.1800  124.7560 C.3    17  HIS17       0.0771
     59  CG       132.6200   73.1280  124.0600 C.ar   17  HIS17       0.0820
     60  ND1      132.6260   71.8010  124.4070 N.ar   17  HIS17      -0.2267
     61  CD2      131.8060   73.2170  122.9700 C.ar   17  HIS17       0.1154
     62  CE1      131.8580   71.1120  123.5650 C.ar   17  HIS17       0.1986
     63  NE2      131.3580   71.9500  122.6820 N.ar   17  HIS17      -0.2212
     64  N        137.7880   77.5270  124.6170 N.3    19  ASP19      -0.1225
     65  CA       138.3960   78.6170  123.8360 C.3    19  ASP19       0.1805
     66  C        137.3040   79.6300  123.4380 C.2    19  ASP19       0.2597
     67  O        137.5360   80.8330  123.4810 O.2    19  ASP19      -0.2718
     68  CB       139.0520   78.0360  122.5740 C.3    19  ASP19       0.1424
     69  CG       139.7850   79.0930  121.7610 C.2    19  ASP19       0.3668
     70  OD1      139.4500   79.3250  120.5710 O.co2  19  ASP19      -0.2456
     71  OD2      140.6920   79.7470  122.3110 O.co2  19  ASP19      -0.2456
     72  N        136.1440   79.1510  122.9920 N.am   20  ILE20      -0.1980
     73  CA       135.0290   80.0500  122.6100 C.3    20  ILE20       0.1595
     74  C        134.5470   80.8310  123.8370 C.2    20  ILE20       0.2287
     75  O        134.3780   82.0490  123.7790 O.2    20  ILE20      -0.2864
     76  CB       133.8660   79.2420  122.0190 C.3    20  ILE20       0.0276
     77  CG1      134.3600   78.4590  120.7850 C.3    20  ILE20       0.0022
     78  CG2      132.6730   80.1030  121.6110 C.3    20  ILE20       0.0022
     79  CD1      134.8800   79.3330  119.6490 C.3    20  ILE20       0.0001
     80  N        122.2750   73.9230  127.6710 N.3    36  LEU36      -0.1245
     81  CA       120.9250   73.7480  127.1180 C.3    36  LEU36       0.1561
     82  C        120.5830   72.2750  127.0440 C.2    36  LEU36       0.2260
     83  O        121.2010   71.4830  126.3660 O.2    36  LEU36      -0.2867
     84  CB       120.6860   74.4900  125.8270 C.3    36  LEU36       0.0270
     85  CG       120.3500   75.9880  125.8850 C.3    36  LEU36       0.0019
     86  CD1      121.0080   76.6660  127.0790 C.3    36  LEU36       0.0001
     87  CD2      120.7500   76.6670  124.5860 C.3    36  LEU36       0.0001
     88  N        118.0530   71.0830  125.6550 N.3    38  ASN38      -0.1225
     89  CA       117.6170   70.8730  124.2920 C.3    38  ASN38       0.1785
     90  C        118.5640   69.9330  123.5530 C.2    38  ASN38       0.2597
     91  O        119.7590   69.8850  123.8230 O.2    38  ASN38      -0.2718
     92  CB       117.5280   72.2080  123.5400 C.3    38  ASN38       0.1169
     93  CG       116.3850   73.0530  123.9480 C.2    38  ASN38       0.2627
     94  OD1      115.2460   72.6190  123.7360 O.2    38  ASN38      -0.2716
     95  ND2      116.6060   74.1780  124.5160 N.am   38  ASN38      -0.0877
     96  N        117.9920   69.1770  122.5940 N.am   39  SER39      -0.1952
     97  CA       118.8250   68.2570  121.8490 C.3    39  SER39       0.1924
     98  C        118.1220   67.4320  120.7930 C.2    39  SER39       0.2314
     99  O        116.9830   66.9960  120.8980 O.2    39  SER39      -0.2863
    100  CB       119.4920   67.2520  122.8380 C.3    39  SER39       0.2116
    101  OG       118.5280   66.4530  123.5380 O.3    39  SER39      -0.2180
    102  N        126.4230   83.7620  121.8540 N.3    86  LEU86      -0.1231
    103  CA       127.6800   83.4440  121.2080 C.3    86  LEU86       0.1693
    104  C        127.8540   81.9630  120.8870 C.2    86  LEU86       0.2592
    105  O        127.7010   81.1190  121.7670 O.2    86  LEU86      -0.2718
    106  CB       128.8300   83.9040  122.1000 C.3    86  LEU86       0.0284
    107  CG       128.8070   85.3470  122.5920 C.3    86  LEU86       0.0019
    108  CD1      130.0310   85.5700  123.5090 C.3    86  LEU86       0.0001
    109  CD2      128.8350   86.3250  121.4250 C.3    86  LEU86       0.0001
    110  N        128.1530   81.6480  119.6410 N.am   87  ARG87      -0.1966
    111  CA       128.3380   80.2790  119.1870 C.3    87  ARG87       0.1729
    112  C        129.6560   80.1360  118.4100 C.2    87  ARG87       0.2616
    113  O        130.1140   81.0690  117.7480 O.2    87  ARG87      -0.2715
    114  CB       127.1910   79.8290  118.2740 C.3    87  ARG87       0.0348
    115  CG       125.8050   79.7000  118.9010 C.3    87  ARG87       0.0492
    116  CD       125.5730   78.3680  119.5840 C.3    87  ARG87       0.2205
    117  NE       125.5090   77.2030  118.7160 N.pl3  87  ARG87      -0.0865
    118  CZ       125.3450   75.9500  119.1430 C.cat  87  ARG87       0.5346
    119  NH1      125.2470   75.7580  120.4560 N.pl3  87  ARG87       0.1354
    120  NH2      125.2640   74.8880  118.3400 N.pl3  87  ARG87       0.1354
    121  N        130.2480   78.9400  118.4710 N.am   88  GLY88      -0.1955
    122  CA       131.4910   78.7040  117.7130 C.3    88  GLY88       0.1869
    123  C        131.1120   78.0340  116.3740 C.2    88  GLY88       0.2309
    124  O        130.0580   77.3750  116.2870 O.2    88  GLY88      -0.2863
    125  N        133.0280   75.7070  113.7950 N.3    90  ARG90      -0.1245
    126  CA       134.1570   74.8070  113.5960 C.3    90  ARG90       0.1563
    127  C        134.3290   74.4840  112.1240 C.2    90  ARG90       0.2260
    128  O        135.3740   74.7750  111.5350 O.2    90  ARG90      -0.2867
    129  CB       133.8920   73.5400  114.3860 C.3    90  ARG90       0.0307
    130  CG       135.0770   72.7230  114.8540 C.3    90  ARG90       0.0489
    131  CD       134.5040   71.4170  115.4900 C.3    90  ARG90       0.2205
    132  NE       133.0880   71.5740  115.7040 N.pl3  90  ARG90      -0.0865
    133  CZ       132.2590   70.8780  116.4210 C.cat  90  ARG90       0.5346
    134  NH1      132.6570   69.7450  116.9700 N.pl3  90  ARG90       0.1354
    135  NH2      130.9600   71.2380  116.5180 N.pl3  90  ARG90       0.1354
    136  N        128.8790   73.1210  110.0970 N.3    94  ASP94      -0.1239
    137  CA       128.1820   73.6940  111.2500 C.3    94  ASP94       0.1674
    138  C        127.1870   74.7810  110.7890 C.2    94  ASP94       0.2266
    139  O        126.4260   75.2800  111.5970 O.2    94  ASP94      -0.2867
    140  CB       129.1160   74.3600  112.2540 C.3    94  ASP94       0.1410
    141  CG       130.0090   73.4180  113.0070 C.2    94  ASP94       0.3668
    142  OD1      129.7270   72.1950  113.0500 O.co2  94  ASP94      -0.2456
    143  OD2      131.0150   73.8880  113.5600 O.co2  94  ASP94      -0.2456
    144  N        122.6240   74.0450  110.3710 N.3    97  TYR97      -0.1227
    145  CA       121.8900   73.8710  111.6450 C.3    97  TYR97       0.1736
    146  C        121.9620   75.1680  112.4340 C.2    97  TYR97       0.2595
    147  O        120.9540   75.6250  113.0050 O.2    97  TYR97      -0.2718
    148  CB       122.4280   72.6980  112.4210 C.3    97  TYR97       0.0548
    149  CG       121.9850   72.5970  113.8620 C.ar   97  TYR97      -0.0200
    150  CD1      120.7520   72.0850  114.2190 C.ar   97  TYR97      -0.0009
    151  CD2      122.8480   73.0210  114.8750 C.ar   97  TYR97      -0.0009
    152  CE1      120.3760   71.9890  115.5550 C.ar   97  TYR97       0.0417
    153  CE2      122.4850   72.9250  116.1970 C.ar   97  TYR97       0.0417
    154  CZ       121.2470   72.4050  116.5290 C.ar   97  TYR97       0.1957
    155  OH       120.8970   72.3340  117.8560 O.3    97  TYR97      -0.2866
    156  N        123.1200   75.8150  112.3980 N.am   98  GLU98      -0.1979
    157  CA       123.2550   77.0930  113.0940 C.3    98  GLU98       0.1602
    158  C        122.3820   78.1640  112.4090 C.2    98  GLU98       0.2287
    159  O        121.8130   79.0110  113.1030 O.2    98  GLU98      -0.2864
    160  CB       124.6950   77.5670  113.1760 C.3    98  GLU98       0.0415
    161  CG       125.6070   76.6650  114.0010 C.3    98  GLU98       0.1163
    162  CD       125.2390   76.5640  115.4590 C.2    98  GLU98       0.3649
    163  OE1      124.6600   77.4990  116.0360 O.co2  98  GLU98      -0.2457
    164  OE2      125.5220   75.5200  116.0760 O.co2  98  GLU98      -0.2457
    165  N        136.3600   78.6910  115.0950 N.3   116  ALA116     -0.1245
    166  CA       137.3750   77.9090  115.8530 C.3   116  ALA116      0.1562
    167  C        138.5810   77.9900  114.8710 C.2   116  ALA116      0.2260
    168  O        138.5570   77.3430  113.8110 O.2   116  ALA116     -0.2867
    169  CB       136.9220   76.4600  115.9380 C.3   116  ALA116      0.0290
    170  N        142.3300   73.8840  118.1680 N.3   120  TYR120     -0.1241
    171  CA       141.2260   73.0820  118.6470 C.3   120  TYR120      0.1605
    172  C        140.1610   72.8410  117.5960 C.2   120  TYR120      0.2264
    173  O        139.2180   72.1080  117.8420 O.2   120  TYR120     -0.2867
    174  CB       140.5370   73.7510  119.8930 C.3   120  TYR120      0.0534
    175  CG       141.5820   73.7920  121.0110 C.ar  120  TYR120     -0.0201
    176  CD1      141.9860   74.9820  121.5860 C.ar  120  TYR120     -0.0009
    177  CD2      142.2190   72.6180  121.3740 C.ar  120  TYR120     -0.0009
    178  CE1      142.9770   74.9870  122.5600 C.ar  120  TYR120      0.0417
    179  CE2      143.2130   72.6150  122.3380 C.ar  120  TYR120      0.0417
    180  CZ       143.5770   73.8050  122.9240 C.ar  120  TYR120      0.1957
    181  OH       144.5680   73.7770  123.8870 O.3   120  TYR120     -0.2866
    182  N        138.6450   69.2550  116.9930 N.3   123  LEU123     -0.1231
    183  CA       137.9030   68.5180  117.9990 C.3   123  LEU123      0.1693
    184  C        136.4250   68.7600  118.1230 C.2   123  LEU123      0.2593
    185  O        135.9180   69.8070  117.7310 O.2   123  LEU123     -0.2718
    186  CB       138.5550   68.8080  119.3870 C.3   123  LEU123      0.0284
    187  CG       139.6410   67.8800  119.8870 C.3   123  LEU123      0.0019
    188  CD1      139.9840   68.4220  121.2870 C.3   123  LEU123      0.0001
    189  CD2      139.0780   66.4730  120.0010 C.3   123  LEU123      0.0001
    190  N        135.7320   67.8340  118.7870 N.am  124  SER124     -0.1938
    191  CA       134.3400   67.8560  119.1020 C.3   124  SER124      0.2055
    192  C        134.0470   66.9580  120.3260 C.2   124  SER124      0.2643
    193  O        134.7740   66.0140  120.6070 O.2   124  SER124     -0.2714
    194  CB       133.4510   67.3940  117.9550 C.3   124  SER124      0.2130
    195  OG       133.5080   65.9940  117.7550 O.3   124  SER124     -0.2179
    196  N        132.9020   67.1750  120.9460 N.am  125  SER125     -0.1949
    197  CA       132.4390   66.4290  122.0700 C.3   125  SER125      0.1924
    198  C        132.2700   64.9550  121.6680 C.2   125  SER125      0.2314
    199  O        132.6060   64.0560  122.4370 O.2   125  SER125     -0.2863
    200  CB       131.1100   66.9580  122.6240 C.3   125  SER125      0.2116
    201  OG       131.3490   68.0130  123.5270 O.3   125  SER125     -0.2180
@<TRIPOS>BOND
     1   136   137    1
     2   144   145    1
     3   138   137    1
     4   138   139    2
     5   137   140    1
     6   128   127    2
     7   145   148    1
     8   145   146    1
     9   127   126    1
    10   140   141    1
    11   156   146   am
    12   156   157    1
    13   158   157    1
    14   158   159    2
    15   148   149    1
    16   146   147    2
    17   141   142   ar
    18   141   143   ar
    19   157   160    1
    20   160   161    1
    21   126   125    1
    22   126   129    1
    23   168   167    2
    24   149   150   ar
    25   149   151   ar
    26   161   162    1
    27   150   152   ar
    28   129   130    1
    29   130   131    1
    30   167   166    1
    31   151   153   ar
    32   165   166    1
    33   162   163   ar
    34   162   164   ar
    35   131   132    1
    36   152   154   ar
    37   132   133    2
    38   166   169    1
    39   153   154   ar
    40   124   123    2
    41   123   122    1
    42   133   135    1
    43   133   134    1
    44   154   155    1
    45   182   183    1
    46   172   173    2
    47   172   171    1
    48   122   121    1
    49   185   184    2
    50   113   112    2
    51   195   194    1
    52   194   191    1
    53   183   184    1
    54   183   186    1
    55   184   190   am
    56   170   171    1
    57   114   115    1
    58   114   111    1
    59   120   118    1
    60   112   121   am
    61   112   111    1
    62   171   174    1
    63   117   118    2
    64   117   116    1
    65   190   191    1
    66   115   116    1
    67   191   192    1
    68   118   119    1
    69   111   110    1
    70   186   187    1
    71   110   104   am
    72    79    77    1
    73   187   189    1
    74   187   188    1
    75   174   175    1
    76   192   193    2
    77   192   196   am
    78    70    69   ar
    79    77    76    1
    80    98    99    2
    81    98    97    1
    82   104   103    1
    83   104   105    2
    84   196   197    1
    85   175   177   ar
    86   175   176   ar
    87   103   102    1
    88   103   106    1
    89   177   179   ar
    90   109   107    1
    91   176   178   ar
    92    78    76    1
    93   198   197    1
    94   198   199    2
    95    69    71   ar
    96    69    68    1
    97    97    96    1
    98    97   100    1
    99    51    52    1
   100    51    50    1
   101    76    73    1
   102    53    52    2
   103   197   200    1
   104   106   107    1
   105   179   180   ar
   106    52    54   am
   107   178   180   ar
   108    68    65    1
   109   107   108    1
   110    96    90   am
   111    73    72    1
   112    73    74    1
   113   200   201    1
   114    63    61   ar
   115    63    62   ar
   116   100   101    1
   117   180   181    1
   118    61    59   ar
   119    72    66   am
   120    12    13    1
   121    12    11    1
   122    54    55    1
   123    48    47    1
   124    23    22    1
   125    66    67    2
   126    66    65    1
   127    10     9    2
   128    92    93    1
   129    92    89    1
   130    90    91    2
   131    90    89    1
   132    62    60   ar
   133    13     7    1
   134    94    93    2
   135    75    74    2
   136    65    64    1
   137    55    56    1
   138    55    58    1
   139    93    95   am
   140    49    47    1
   141    59    60   ar
   142    59    58    1
   143    47    44    1
   144    15    14    1
   145    15    16    1
   146    89    88    1
   147     9    14   am
   148     9     8    1
   149    11     8    1
   150    22    19    1
   151    18    16   am
   152    18    19    1
   153    87    85    1
   154     6     5    1
   155    57    56    2
   156     7     8    1
   157     7     3   am
   158    16    17    2
   159    38    37    2
   160    19    20    1
   161     2     3    1
   162     2     5    1
   163     2     1    1
   164    45    44    1
   165    45    46    2
   166    41    40   ar
   167    44    43    1
   168     3     4    2
   169    24    20   am
   170    24    25    1
   171    33    34   ar
   172    33    31   ar
   173    84    85    1
   174    84    81    1
   175    85    86    1
   176    39    40    1
   177    39    36    1
   178    34    32   ar
   179    31    29   ar
   180    20    21    2
   181    35    36    1
   182    35    26   am
   183    37    36    1
   184    83    82    2
   185    25    26    1
   186    25    28    1
   187    40    42   ar
   188    82    81    1
   189    32    30   ar
   190    26    27    2
   191    29    30   ar
   192    29    28    1
   193    81    80    1
