@<TRIPOS>MOLECULE
tmp/1o6eB00.pdb
 92 87 0 0 0
SMALL
GASTEIGER

@<TRIPOS>ATOM
      1  N          4.7580   24.2080    8.3360 N.3    22  LEU22      -0.1245
      2  CA         3.4320   23.7020    8.6510 C.3    22  LEU22       0.1561
      3  C          2.3920   24.2420    7.6600 C.2    22  LEU22       0.2260
      4  O          1.4930   23.5170    7.2390 O.2    22  LEU22      -0.2867
      5  CB         3.0820   24.0980   10.0930 C.3    22  LEU22       0.0270
      6  CG         3.8810   23.3370   11.1620 C.3    22  LEU22       0.0019
      7  CD1        3.9690   24.1270   12.4630 C.3    22  LEU22       0.0001
      8  CD2        3.2240   21.9840   11.3820 C.3    22  LEU22       0.0001
      9  N          2.6590    8.5730   13.5670 N.3    45  HIS45      -0.1241
     10  CA         3.4040    8.6010   12.3280 C.3    45  HIS45       0.1621
     11  C          4.1780    7.3180   12.0990 C.2    45  HIS45       0.2264
     12  O          5.1780    7.3150   11.3860 O.2    45  HIS45      -0.2867
     13  CB         4.3550    9.8150   12.3370 C.3    45  HIS45       0.0745
     14  CG         3.6480   11.1410   12.4200 C.ar   45  HIS45       0.0817
     15  ND1        3.0990   11.7660   11.3210 N.ar   45  HIS45      -0.2268
     16  CD2        3.3580   11.9290   13.4840 C.ar   45  HIS45       0.1154
     17  CE1        2.5020   12.8790   11.7060 C.ar   45  HIS45       0.1986
     18  NE2        2.6440   13.0010   13.0130 N.ar   45  HIS45      -0.2212
     19  N         -4.5610   15.4320   16.2470 N.3   112  LEU112     -0.1231
     20  CA        -4.4810   14.9070   14.8950 C.3   112  LEU112      0.1693
     21  C         -3.3260   15.5870   14.1970 C.2   112  LEU112      0.2593
     22  O         -3.0250   16.7510   14.4530 O.2   112  LEU112     -0.2718
     23  CB        -5.7470   15.2210   14.1000 C.3   112  LEU112      0.0284
     24  CG        -7.0220   14.4220   14.3370 C.3   112  LEU112      0.0019
     25  CD1       -8.1680   15.2320   13.7770 C.3   112  LEU112      0.0001
     26  CD2       -6.9400   13.0240   13.6870 C.3   112  LEU112      0.0001
     27  N         -2.6850   14.8600   13.2970 N.am  113  SER113     -0.1938
     28  CA        -1.5740   15.4210   12.5600 C.3   113  SER113      0.2055
     29  C         -1.6390   14.9690   11.1100 C.2   113  SER113      0.2643
     30  O         -1.6650   13.7720   10.8250 O.2   113  SER113     -0.2714
     31  CB        -0.2460   14.9970   13.2100 C.3   113  SER113      0.2130
     32  OG         0.8570   15.5950   12.5630 O.3   113  SER113     -0.2179
     33  N         -1.7060   15.9370   10.1990 N.am  114  LEU114     -0.1963
     34  CA        -1.7400   15.6460    8.7680 C.3   114  LEU114      0.1728
     35  C         -0.3290   15.7770    8.1900 C.2   114  LEU114      0.2616
     36  O          0.2570   16.8640    8.1870 O.2   114  LEU114     -0.2715
     37  CB        -2.6610   16.6170    8.0210 C.3   114  LEU114      0.0311
     38  CG        -2.6090   16.5390    6.4850 C.3   114  LEU114      0.0022
     39  CD1       -3.2190   15.2370    6.0070 C.3   114  LEU114      0.0001
     40  CD2       -3.3530   17.7180    5.8890 C.3   114  LEU114      0.0001
     41  N          0.2100   14.6660    7.7010 N.am  115  ALA115     -0.1977
     42  CA         1.5480   14.6550    7.1180 C.3   115  ALA115      0.1597
     43  C          1.4240   14.5460    5.6070 C.2   115  ALA115      0.2287
     44  O          0.5600   13.8200    5.1040 O.2   115  ALA115     -0.2864
     45  CB         2.3410   13.4770    7.6580 C.3   115  ALA115      0.0319
     46  N         -1.9440   11.6470   17.4940 N.3   140  CYS140     -0.1235
     47  CA        -0.7760   11.8870   18.3320 C.3   140  CYS140      0.1677
     48  C         -1.0730   12.5110   19.6930 C.2   140  CYS140      0.2270
     49  O         -2.2120   12.8460   19.9980 O.2   140  CYS140     -0.2867
     50  CB         0.2350   12.7470   17.5510 C.3   140  CYS140      0.0956
     51  SG        -0.4460   14.1430   16.5840 S.3   140  CYS140     -0.0801
     52  N          0.0140   15.3030   20.6410 N.3   142  LEU142     -0.1231
     53  CA        -0.1640   16.7180   20.4020 C.3   142  LEU142      0.1693
     54  C          0.2820   16.9940   18.9810 C.2   142  LEU142      0.2593
     55  O          1.4360   16.7490   18.6320 O.2   142  LEU142     -0.2718
     56  CB         0.6730   17.5270   21.3900 C.3   142  LEU142      0.0284
     57  CG         0.4470   19.0440   21.4630 C.3   142  LEU142      0.0019
     58  CD1       -0.7240   19.4630   20.5750 C.3   142  LEU142      0.0001
     59  CD2        0.1910   19.4460   22.9180 C.3   142  LEU142      0.0001
     60  N         -0.6490   17.4790   18.1620 N.am  143  GLY143     -0.1942
     61  CA        -0.3480   17.7850   16.7760 C.3   143  GLY143      0.2014
     62  C          0.4570   19.0590   16.7440 C.2   143  GLY143      0.2639
     63  O          0.3960   19.8400   17.6840 O.2   143  GLY143     -0.2714
     64  N          1.2160   19.2750   15.6770 N.am  144  ARG144     -0.1963
     65  CA         2.0430   20.4740   15.5740 C.3   144  ARG144      0.1729
     66  C          1.2040   21.7490   15.3450 C.2   144  ARG144      0.2616
     67  O          1.5520   22.8360   15.8260 O.2   144  ARG144     -0.2715
     68  CB         3.0890   20.2870   14.4550 C.3   144  ARG144      0.0348
     69  CG         4.1350   19.1890   14.7240 C.3   144  ARG144      0.0492
     70  CD         5.4870   19.7740   15.1610 C.3   144  ARG144      0.2205
     71  NE         6.4690   18.7460   15.5280 N.pl3 144  ARG144     -0.0865
     72  CZ         7.6700   18.9950   16.0520 C.cat 144  ARG144      0.5346
     73  NH1        8.0550   20.2450   16.2710 N.pl3 144  ARG144      0.1354
     74  NH2        8.4800   17.9920   16.3820 N.pl3 144  ARG144      0.1354
     75  N          0.0920   21.6130   14.6250 N.am  145  ARG145     -0.1977
     76  CA        -0.7790   22.7500   14.3420 C.3   145  ARG145      0.1597
     77  C         -1.7830   22.8870   15.4690 C.2   145  ARG145      0.2287
     78  O         -2.2940   21.8800   15.9550 O.2   145  ARG145     -0.2864
     79  CB        -1.4920   22.5250   13.0150 C.3   145  ARG145      0.0334
     80  CG        -0.5220   22.1430   11.9060 C.3   145  ARG145      0.0492
     81  CD        -1.1990   22.0540   10.5800 C.3   145  ARG145      0.2205
     82  NE        -0.2830   21.7190    9.5000 N.pl3 145  ARG145     -0.0865
     83  CZ         0.0220   20.4800    9.1310 C.cat 145  ARG145      0.5346
     84  NH1       -0.5110   19.4460    9.7650 N.pl3 145  ARG145      0.1354
     85  NH2        0.8300   20.2700    8.0980 N.pl3 145  ARG145      0.1354
     86  N         -5.9120   21.2560   16.6500 N.3   148  THR148     -0.1218
     87  CA        -5.9300   19.9550   15.9640 C.3   148  THR148      0.1862
     88  C         -6.5180   18.8470   16.8350 C.2   148  THR148      0.2287
     89  O         -6.6230   17.6920   16.4270 O.2   148  THR148     -0.2866
     90  CB        -4.5070   19.5350   15.5520 C.3   148  THR148      0.1770
     91  OG1       -3.5990   19.8680   16.6020 O.3   148  THR148     -0.2211
     92  CG2       -4.0800   20.2410   14.2950 C.3   148  THR148      0.0375
@<TRIPOS>BOND
     1    44    43    2
     2    43    42    1
     3    40    38    1
     4    39    38    1
     5    38    37    1
     6    42    45    1
     7    42    41    1
     8     4     3    2
     9     3     2    1
    10    41    35   am
    11    37    34    1
    12    85    83    1
    13    36    35    2
    14    35    34    1
    15     1     2    1
    16     2     5    1
    17    34    33    1
    18    83    82    2
    19    83    84    1
    20    82    81    1
    21     5     6    1
    22    33    29   am
    23    81    80    1
    24    30    29    2
    25    29    28    1
    26     6     8    1
    27     6     7    1
    28    15    17   ar
    29    15    14   ar
    30    12    11    2
    31    17    18   ar
    32    80    79    1
    33    11    10    1
    34    10    13    1
    35    10     9    1
    36    13    14    1
    37    14    16   ar
    38    28    31    1
    39    28    27    1
    40    32    31    1
    41    18    16   ar
    42    79    76    1
    43    27    21   am
    44    26    24    1
    45    25    24    1
    46    23    24    1
    47    23    20    1
    48    21    22    2
    49    21    20    1
    50    92    90    1
    51    76    75    1
    52    76    77    1
    53    68    69    1
    54    68    65    1
    55    75    66   am
    56    69    70    1
    57    20    19    1
    58    70    71    1
    59    66    65    1
    60    66    67    2
    61    77    78    2
    62    71    72    2
    63    90    87    1
    64    90    91    1
    65    65    64    1
    66    64    62   am
    67    87    86    1
    68    87    88    1
    69    72    73    1
    70    72    74    1
    71    89    88    2
    72    51    50    1
    73    62    61    1
    74    62    63    2
    75    61    60    1
    76    46    47    1
    77    50    47    1
    78    60    54   am
    79    47    48    1
    80    55    54    2
    81    54    53    1
    82    48    49    2
    83    53    52    1
    84    53    56    1
    85    58    57    1
    86    56    57    1
    87    57    59    1
