@<TRIPOS>MOLECULE
tmp/1o6iB00.pdb
 125 122 0 0 0
SMALL
GASTEIGER

@<TRIPOS>ATOM
      1  N         40.7010   74.5850   43.2110 N.3     8  TYR8       -0.1241
      2  CA        40.8980   75.9470   43.7290 C.3     8  TYR8        0.1605
      3  C         41.7640   76.8150   42.8120 C.2     8  TYR8        0.2264
      4  O         42.7920   76.3520   42.3090 O.2     8  TYR8       -0.2867
      5  CB        41.5950   75.9240   45.0930 C.3     8  TYR8        0.0534
      6  CG        40.6400   75.7670   46.2360 C.ar    8  TYR8       -0.0201
      7  CD1       40.1620   74.5040   46.6120 C.ar    8  TYR8       -0.0009
      8  CD2       40.1720   76.8820   46.9120 C.ar    8  TYR8       -0.0009
      9  CE1       39.2350   74.3720   47.6470 C.ar    8  TYR8        0.0417
     10  CE2       39.2340   76.7580   47.9510 C.ar    8  TYR8        0.0417
     11  CZ        38.7790   75.5210   48.3060 C.ar    8  TYR8        0.1957
     12  OH        37.8540   75.3990   49.3000 O.3     8  TYR8       -0.2866
     13  N         40.9350   84.0290   47.9120 N.3    49  PHE49      -0.1241
     14  CA        39.9060   83.9560   48.9600 C.3    49  PHE49       0.1605
     15  C         39.2550   85.3260   49.1930 C.2    49  PHE49       0.2264
     16  O         39.9170   86.3770   49.0320 O.2    49  PHE49      -0.2867
     17  CB        40.5110   83.5920   50.3350 C.3    49  PHE49       0.0534
     18  CG        40.8690   82.1320   50.4830 C.ar   49  PHE49      -0.0203
     19  CD1       39.8730   81.1800   50.6550 C.ar   49  PHE49      -0.0042
     20  CD2       42.1860   81.7170   50.3960 C.ar   49  PHE49      -0.0042
     21  CE1       40.2000   79.8100   50.7370 C.ar   49  PHE49      -0.0003
     22  CE2       42.5080   80.3520   50.4720 C.ar   49  PHE49      -0.0003
     23  CZ        41.5210   79.4230   50.6400 C.ar   49  PHE49      -0.0000
     24  N         39.4330   80.4750   54.4690 N.3    94  GLY94      -0.1210
     25  CA        40.7580   79.9060   54.2800 C.3    94  GLY94       0.1956
     26  C         41.4870   79.9920   55.6130 C.2    94  GLY94       0.2611
     27  O         41.0850   80.7330   56.5210 O.2    94  GLY94      -0.2717
     28  N         42.5790   79.2480   55.7580 N.am   95  TRP95      -0.1976
     29  CA        43.3050   79.2640   57.0390 C.3    95  TRP95       0.1640
     30  C         43.7680   80.6380   57.5310 C.2    95  TRP95       0.2290
     31  O         43.5040   81.0230   58.6680 O.2    95  TRP95      -0.2864
     32  CB        44.5210   78.3490   56.9380 C.3    95  TRP95       0.0576
     33  CG        45.3280   78.2660   58.2170 C.ar   95  TRP95       0.0006
     34  CD1       46.4800   78.9320   58.5060 C.ar   95  TRP95       0.0946
     35  CD2       44.9980   77.5050   59.3780 C.ar   95  TRP95       0.0152
     36  NE1       46.8910   78.6320   59.7940 N.ar   95  TRP95      -0.2442
     37  CE2       45.9950   77.7570   60.3460 C.ar   95  TRP95       0.0810
     38  CE3       43.9460   76.6380   59.7020 C.ar   95  TRP95       0.0012
     39  CZ2       45.9720   77.1660   61.6180 C.ar   95  TRP95       0.0191
     40  CZ3       43.9210   76.0610   60.9590 C.ar   95  TRP95       0.0001
     41  CH2       44.9300   76.3260   61.9040 C.ar   95  TRP95       0.0015
     42  N         35.0020   78.4940   53.8370 N.3   140  ASP140     -0.1239
     43  CA        36.1370   77.7410   54.3670 C.3   140  ASP140      0.1674
     44  C         36.5900   78.2900   55.7180 C.2   140  ASP140      0.2266
     45  O         37.7150   78.7780   55.8650 O.2   140  ASP140     -0.2867
     46  CB        37.3120   77.8150   53.3820 C.3   140  ASP140      0.1410
     47  CG        36.9590   77.2640   52.0140 C.2   140  ASP140      0.3668
     48  OD1       35.8650   76.6890   51.8550 O.co2 140  ASP140     -0.2456
     49  OD2       37.7780   77.3930   51.0820 O.co2 140  ASP140     -0.2456
     50  N         38.0220   77.6310   59.1100 N.3   142  GLU142     -0.1245
     51  CA        38.8360   76.5810   59.6860 C.3   142  GLU142      0.1567
     52  C         39.1640   76.8340   61.1630 C.2   142  GLU142      0.2260
     53  O         40.2430   77.3450   61.4640 O.2   142  GLU142     -0.2867
     54  CB        40.1300   76.4910   58.8450 C.3   142  GLU142      0.0388
     55  CG        39.8250   76.1520   57.3760 C.3   142  GLU142      0.1160
     56  CD        41.0520   76.1180   56.4730 C.2   142  GLU142      0.3649
     57  OE1       42.1850   75.8410   56.9500 O.co2 142  GLU142     -0.2457
     58  OE2       40.8670   76.3660   55.2550 O.co2 142  GLU142     -0.2457
     59  N         34.4830   73.8860   52.9240 N.3   182  ALA182     -0.1245
     60  CA        35.6810   73.0310   53.0140 C.3   182  ALA182      0.1562
     61  C         35.6010   72.5180   54.4580 C.2   182  ALA182      0.2260
     62  O         35.4380   73.3010   55.3980 O.2   182  ALA182     -0.2867
     63  CB        36.9890   73.8560   52.8410 C.3   182  ALA182      0.0290
     64  N         39.3020   68.3490   53.5080 N.3   210  MET210     -0.1245
     65  CA        40.7150   68.6680   53.3280 C.3   210  MET210      0.1570
     66  C         41.5410   67.4690   53.7740 C.2   210  MET210      0.2261
     67  O         42.3190   67.5190   54.7260 O.2   210  MET210     -0.2867
     68  CB        41.0160   69.9520   54.1130 C.3   210  MET210      0.0387
     69  CG        40.3480   71.1320   53.4230 C.3   210  MET210      0.0595
     70  SD        40.6080   72.7410   54.1560 S.3   210  MET210     -0.1393
     71  CE        39.4290   72.7880   55.3880 C.3   210  MET210      0.0692
     72  N         44.2700   65.9980   53.3520 N.3   212  TYR212     -0.1227
     73  CA        45.7050   66.1430   53.0890 C.3   212  TYR212      0.1736
     74  C         46.2730   66.9780   54.2310 C.2   212  TYR212      0.2595
     75  O         45.5230   67.3920   55.1400 O.2   212  TYR212     -0.2718
     76  CB        45.9770   66.7390   51.6900 C.3   212  TYR212      0.0548
     77  CG        45.1350   67.9330   51.3350 C.ar  212  TYR212     -0.0200
     78  CD1       45.4670   69.2000   51.7800 C.ar  212  TYR212     -0.0009
     79  CD2       43.9900   67.7770   50.5640 C.ar  212  TYR212     -0.0009
     80  CE1       44.6680   70.3120   51.4540 C.ar  212  TYR212      0.0417
     81  CE2       43.1860   68.8630   50.2350 C.ar  212  TYR212      0.0417
     82  CZ        43.5310   70.1300   50.6760 C.ar  212  TYR212      0.1957
     83  OH        42.7610   71.2070   50.3140 O.3   212  TYR212     -0.2866
     84  N         47.5770   67.2300   54.2220 N.am  213  ASP213     -0.1974
     85  CA        48.2150   67.9110   55.3520 C.3   213  ASP213      0.1709
     86  C         48.0660   67.0240   56.5920 C.2   213  ASP213      0.2293
     87  O         48.0420   67.5370   57.7180 O.2   213  ASP213     -0.2864
     88  CB        47.5670   69.2490   55.6820 C.3   213  ASP213      0.1436
     89  CG        47.9790   70.3360   54.7380 C.2   213  ASP213      0.3671
     90  OD1       48.9430   70.1250   53.9740 O.co2 213  ASP213     -0.2456
     91  OD2       47.3360   71.4040   54.7720 O.co2 213  ASP213     -0.2456
     92  N         50.3860   69.3530   45.6780 N.3   290  TYR290     -0.1241
     93  CA        51.6950   69.6940   46.1980 C.3   290  TYR290      0.1605
     94  C         52.1830   68.6170   47.1660 C.2   290  TYR290      0.2264
     95  O         51.3980   67.8300   47.7150 O.2   290  TYR290     -0.2867
     96  CB        51.6440   71.0330   46.9430 C.3   290  TYR290      0.0534
     97  CG        50.7580   70.9950   48.1680 C.ar  290  TYR290     -0.0201
     98  CD1       51.2650   70.6000   49.4230 C.ar  290  TYR290     -0.0009
     99  CD2       49.3920   71.2680   48.0620 C.ar  290  TYR290     -0.0009
    100  CE1       50.4290   70.4720   50.5290 C.ar  290  TYR290      0.0417
    101  CE2       48.5460   71.1330   49.1660 C.ar  290  TYR290      0.0417
    102  CZ        49.0620   70.7410   50.3880 C.ar  290  TYR290      0.1957
    103  OH        48.2050   70.6320   51.4720 O.3   290  TYR290     -0.2866
    104  N         38.1560   67.2560   45.1680 N.3   399  MET399     -0.1245
    105  CA        38.4770   68.6890   45.2540 C.3   399  MET399      0.1570
    106  C         39.9840   68.7430   45.3200 C.2   399  MET399      0.2261
    107  O         40.6000   67.8160   45.8140 O.2   399  MET399     -0.2867
    108  CB        37.8800   69.3110   46.5450 C.3   399  MET399      0.0387
    109  CG        38.3720   70.7540   46.9110 C.3   399  MET399      0.0595
    110  SD        39.9540   70.7730   47.7790 S.3   399  MET399     -0.1393
    111  CE        39.4100   70.6130   49.5300 C.3   399  MET399      0.0692
    112  N         43.7130   71.3380   45.8760 N.3   401  TRP401     -0.1241
    113  CA        44.4270   72.5870   46.1220 C.3   401  TRP401      0.1605
    114  C         45.8400   72.3990   45.5360 C.2   401  TRP401      0.2264
    115  O         46.5690   71.5540   46.0530 O.2   401  TRP401     -0.2867
    116  CB        44.5280   72.8600   47.6440 C.3   401  TRP401      0.0550
    117  CG        45.3720   74.0690   47.9450 C.ar  401  TRP401      0.0003
    118  CD1       46.7350   74.1090   48.1380 C.ar  401  TRP401      0.0946
    119  CD2       44.9200   75.4220   48.0530 C.ar  401  TRP401      0.0152
    120  NE1       47.1520   75.4090   48.3650 N.ar  401  TRP401     -0.2442
    121  CE2       46.0590   76.2330   48.3130 C.ar  401  TRP401      0.0810
    122  CE3       43.6630   76.0370   47.9510 C.ar  401  TRP401      0.0012
    123  CZ2       45.9730   77.6120   48.4720 C.ar  401  TRP401      0.0191
    124  CZ3       43.5890   77.4070   48.1120 C.ar  401  TRP401      0.0001
    125  CH2       44.7360   78.1780   48.3700 C.ar  401  TRP401      0.0015
@<TRIPOS>BOND
     1     4     3    2
     2     3     2    1
     3     1     2    1
     4     2     5    1
     5     5     6    1
     6   104   105    1
     7   105   106    1
     8   105   108    1
     9   106   107    2
    10   114   115    2
    11   114   113    1
    12    92    93    1
    13   112   113    1
    14   113   116    1
    15    93    96    1
    16    93    94    1
    17     6     7   ar
    18     6     8   ar
    19   108   109    1
    20     7     9   ar
    21   109   110    1
    22     8    10   ar
    23    96    97    1
    24    94    95    2
    25   116   117    1
    26     9    11   ar
    27   110   111    1
    28    13    14    1
    29   117   119   ar
    30   117   118   ar
    31   122   119   ar
    32   122   124   ar
    33    10    11   ar
    34   119   121   ar
    35    99    97   ar
    36    99   101   ar
    37   124   125   ar
    38   118   120   ar
    39    97    98   ar
    40    11    12    1
    41   121   120   ar
    42   121   123   ar
    43   125   123   ar
    44    14    15    1
    45    14    17    1
    46    16    15    2
    47   101   102   ar
    48    98   100   ar
    49    81    79   ar
    50    81    82   ar
    51    83    82    1
    52    17    18    1
    53   102   100   ar
    54   102   103    1
    55    20    22   ar
    56    20    18   ar
    57    22    23   ar
    58    18    19   ar
    59    79    77   ar
    60    23    21   ar
    61    19    21   ar
    62    82    80   ar
    63    49    47   ar
    64    77    76    1
    65    77    78   ar
    66    80    78   ar
    67    76    73    1
    68    48    47   ar
    69    47    46    1
    70    63    60    1
    71    59    60    1
    72    60    61    1
    73    73    72    1
    74    73    74    1
    75    65    64    1
    76    65    66    1
    77    65    68    1
    78    46    43    1
    79    69    68    1
    80    69    70    1
    81    66    67    2
    82    42    43    1
    83    90    89   ar
    84    70    71    1
    85    84    74   am
    86    84    85    1
    87    74    75    2
    88    25    24    1
    89    25    26    1
    90    43    44    1
    91    61    62    2
    92    89    91   ar
    93    89    88    1
    94    58    56   ar
    95    85    88    1
    96    85    86    1
    97    26    28   am
    98    26    27    2
    99    44    45    2
   100    28    29    1
   101    56    57   ar
   102    56    55    1
   103    86    87    2
   104    32    29    1
   105    32    33    1
   106    29    30    1
   107    55    54    1
   108    30    31    2
   109    33    34   ar
   110    33    35   ar
   111    34    36   ar
   112    54    51    1
   113    50    51    1
   114    35    38   ar
   115    35    37   ar
   116    51    52    1
   117    38    40   ar
   118    36    37   ar
   119    37    39   ar
   120    40    41   ar
   121    52    53    2
   122    39    41   ar
