@<TRIPOS>MOLECULE
tmp/1o6kA01.pdb
 206 194 0 0 0
SMALL
GASTEIGER

@<TRIPOS>ATOM
      1  N         50.5590   32.1570  169.1640 N.3    13  LEU13      -0.1231
      2  CA        50.4530   32.2470  170.6200 C.3    13  LEU13       0.1693
      3  C         49.7930   31.0070  171.2000 C.2    13  LEU13       0.2593
      4  O         50.2010   30.5140  172.2530 O.2    13  LEU13      -0.2718
      5  CB        49.6370   33.4760  171.0170 C.3    13  LEU13       0.0284
      6  CG        50.1880   34.8490  170.6450 C.3    13  LEU13       0.0019
      7  CD1       49.1480   35.8970  170.9590 C.3    13  LEU13       0.0001
      8  CD2       51.5030   35.1330  171.3710 C.3    13  LEU13       0.0001
      9  N         48.7770   30.5120  170.4970 N.am   14  GLY14      -0.1942
     10  CA        48.0540   29.3390  170.9480 C.3    14  GLY14       0.2014
     11  C         47.2460   28.6900  169.8480 C.2    14  GLY14       0.2639
     12  O         46.9610   29.3120  168.8210 O.2    14  GLY14      -0.2714
     13  N         46.8560   27.4410  170.0840 N.am   15  LYS15      -0.1963
     14  CA        46.0800   26.6700  169.1200 C.3    15  LYS15       0.1728
     15  C         45.0720   25.7840  169.8410 C.2    15  LYS15       0.2617
     16  O         45.3740   25.1970  170.8850 O.2    15  LYS15      -0.2715
     17  CB        47.0210   25.8100  168.2630 C.3    15  LYS15       0.0311
     18  CG        46.4740   25.4060  166.9020 C.3    15  LYS15       0.0038
     19  CD        47.5610   24.7650  166.0510 C.3    15  LYS15       0.0206
     20  CE        47.0850   24.5320  164.6230 C.3    15  LYS15       0.1093
     21  NZ        48.1620   23.9690  163.7610 N.3    15  LYS15      -0.1314
     22  N         43.8650   25.7330  169.2870 N.am   16  GLY16      -0.1940
     23  CA        42.8040   24.9080  169.8350 C.3    16  GLY16       0.2014
     24  C         42.4800   23.8080  168.8420 C.2    16  GLY16       0.2640
     25  O         43.1970   23.6280  167.8490 O.2    16  GLY16      -0.2714
     26  N         41.3990   23.0770  169.1010 N.am   17  THR17      -0.1936
     27  CA        40.9570   21.9880  168.2260 C.3    17  THR17       0.2028
     28  C         40.0440   22.5600  167.1230 C.2    17  THR17       0.2642
     29  O         39.6210   21.8390  166.2150 O.2    17  THR17      -0.2714
     30  CB        40.2120   20.8820  169.0440 C.3    17  THR17       0.1808
     31  OG1       40.8750   20.6860  170.3010 O.3    17  THR17      -0.2208
     32  CG2       40.2230   19.5460  168.2980 C.3    17  THR17       0.0379
     33  N         39.7630   23.8640  167.2100 N.am   18  PHE18      -0.1959
     34  CA        38.9080   24.5670  166.2490 C.3    18  PHE18       0.1771
     35  C         39.6390   25.7040  165.5220 C.2    18  PHE18       0.2620
     36  O         39.5030   25.8440  164.3000 O.2    18  PHE18      -0.2715
     37  CB        37.6540   25.1390  166.9410 C.3    18  PHE18       0.0574
     38  CG        36.8680   24.1290  167.7490 C.ar   18  PHE18      -0.0200
     39  CD1       36.7390   24.2850  169.1440 C.ar   18  PHE18      -0.0042
     40  CD2       36.2530   23.0190  167.1280 C.ar   18  PHE18      -0.0042
     41  CE1       36.0060   23.3450  169.9280 C.ar   18  PHE18      -0.0003
     42  CE2       35.5150   22.0650  167.8920 C.ar   18  PHE18      -0.0003
     43  CZ        35.3910   22.2300  169.2970 C.ar   18  PHE18      -0.0000
     44  N         40.4020   26.5060  166.2720 N.am   19  GLY19      -0.1954
     45  CA        41.1280   27.6280  165.6860 C.3    19  GLY19       0.1869
     46  C         42.4590   28.0020  166.3190 C.2    19  GLY19       0.2309
     47  O         42.8570   27.4320  167.3400 O.2    19  GLY19      -0.2863
     48  N         45.4050   31.2850  167.4730 N.3    21  VAL21      -0.1245
     49  CA        45.6050   32.6640  167.9460 C.3    21  VAL21       0.1561
     50  C         47.0330   33.0960  167.6020 C.2    21  VAL21       0.2260
     51  O         48.0020   32.4860  168.0510 O.2    21  VAL21      -0.2867
     52  CB        45.3350   32.8130  169.4780 C.3    21  VAL21       0.0252
     53  CG1       45.4440   34.2840  169.9140 C.3    21  VAL21       0.0019
     54  CG2       43.9450   32.2890  169.8230 C.3    21  VAL21       0.0019
     55  N         46.1670   40.3070  169.5100 N.3    34  ALA34      -0.1245
     56  CA        46.0930   38.8560  169.4010 C.3    34  ALA34       0.1562
     57  C         44.8910   38.5560  168.5130 C.2    34  ALA34       0.2260
     58  O         43.7660   38.9520  168.8300 O.2    34  ALA34      -0.2867
     59  CB        45.9200   38.2240  170.7700 C.3    34  ALA34       0.0290
     60  N         42.4040   35.8700  166.8770 N.3    36  LYS36      -0.1245
     61  CA        41.8580   34.5200  166.9090 C.3    36  LYS36       0.1561
     62  C         41.2190   34.2770  165.5410 C.2    36  LYS36       0.2260
     63  O         40.2750   34.9750  165.1500 O.2    36  LYS36      -0.2867
     64  CB        40.8240   34.3520  168.0310 C.3    36  LYS36       0.0271
     65  CG        40.3210   32.9210  168.1890 C.3    36  LYS36       0.0035
     66  CD        39.4120   32.7580  169.3830 C.3    36  LYS36       0.0206
     67  CE        38.9500   31.3130  169.4970 C.3    36  LYS36       0.1093
     68  NZ        38.1670   31.0960  170.7450 N.3    36  LYS36      -0.1314
     69  N         39.3410   31.6560  163.0350 N.3    38  LEU38      -0.1245
     70  CA        38.4820   30.4750  162.9800 C.3    38  LEU38       0.1561
     71  C         38.0790   30.1930  161.5300 C.2    38  LEU38       0.2260
     72  O         37.7840   31.1160  160.7700 O.2    38  LEU38      -0.2867
     73  CB        37.2310   30.6840  163.8460 C.3    38  LEU38       0.0270
     74  CG        37.3430   30.7980  165.3750 C.3    38  LEU38       0.0019
     75  CD1       36.0110   31.2170  165.9530 C.3    38  LEU38       0.0001
     76  CD2       37.7790   29.4810  165.9900 C.3    38  LEU38       0.0001
     77  N         39.0900   40.3940  178.2980 N.3    68  THR68      -0.1218
     78  CA        39.8110   40.7630  177.0820 C.3    68  THR68       0.1862
     79  C         38.8800   41.6010  176.1960 C.2    68  THR68       0.2287
     80  O         37.7410   41.2090  175.9400 O.2    68  THR68      -0.2866
     81  CB        40.2890   39.4910  176.3320 C.3    68  THR68       0.1770
     82  OG1       41.1590   38.7430  177.1880 O.3    68  THR68      -0.2211
     83  CG2       41.0430   39.8320  175.0660 C.3    68  THR68       0.0375
     84  N         41.7050   40.9270  169.2360 N.3    84  MET84      -0.1230
     85  CA        41.5940   41.2120  170.6660 C.3    84  MET84       0.1702
     86  C         42.8460   41.8730  171.2120 C.2    84  MET84       0.2592
     87  O         43.9040   41.8050  170.5890 O.2    84  MET84      -0.2718
     88  CB        41.4300   39.9020  171.4370 C.3    84  MET84       0.0401
     89  CG        40.3870   38.9400  170.9340 C.3    84  MET84       0.0596
     90  SD        40.5690   37.4000  171.8340 S.3    84  MET84      -0.1393
     91  CE        41.9380   36.6490  170.9520 C.3    84  MET84       0.0692
     92  N         42.7400   42.4500  172.4130 N.am   85  GLU85      -0.1966
     93  CA        43.9000   43.0520  173.0670 C.3    85  GLU85       0.1733
     94  C         44.8250   41.8960  173.4890 C.2    85  GLU85       0.2616
     95  O         44.3600   40.8160  173.8910 O.2    85  GLU85      -0.2715
     96  CB        43.5040   43.9500  174.2560 C.3    85  GLU85       0.0429
     97  CG        42.8700   43.2630  175.4530 C.3    85  GLU85       0.1163
     98  CD        42.5890   44.2040  176.6150 C.2    85  GLU85       0.3649
     99  OE1       43.4440   45.0600  176.9400 O.co2  85  GLU85      -0.2457
    100  OE2       41.5100   44.0690  177.2240 O.co2  85  GLU85      -0.2457
    101  N         46.1160   42.0990  173.2690 N.am   86  TYR86      -0.1960
    102  CA        47.1430   41.1090  173.5620 C.3    86  TYR86       0.1771
    103  C         47.5150   41.0410  175.0420 C.2    86  TYR86       0.2619
    104  O         47.8590   42.0510  175.6570 O.2    86  TYR86      -0.2715
    105  CB        48.3720   41.3990  172.6790 C.3    86  TYR86       0.0574
    106  CG        49.6190   40.5620  172.9030 C.ar   86  TYR86      -0.0198
    107  CD1       49.5600   39.1510  172.9790 C.ar   86  TYR86      -0.0009
    108  CD2       50.8770   41.1820  173.0330 C.ar   86  TYR86      -0.0009
    109  CE1       50.7340   38.3780  173.1880 C.ar   86  TYR86       0.0417
    110  CE2       52.0600   40.4150  173.2360 C.ar   86  TYR86       0.0417
    111  CZ        51.9760   39.0200  173.3140 C.ar   86  TYR86       0.1957
    112  OH        53.1100   38.2740  173.5270 O.3    86  TYR86      -0.2866
    113  N         47.4330   39.8290  175.5920 N.am   87  ALA87      -0.1977
    114  CA        47.7880   39.5720  176.9820 C.3    87  ALA87       0.1597
    115  C         49.2370   39.0670  177.0070 C.2    87  ALA87       0.2287
    116  O         49.4960   37.8630  176.8820 O.2    87  ALA87      -0.2864
    117  CB        46.8440   38.5560  177.5820 C.3    87  ALA87       0.0319
    118  N         49.2790   32.6160  179.8400 N.3    91  GLU91      -0.1245
    119  CA        48.2440   31.9140  180.5980 C.3    91  GLU91       0.1567
    120  C         48.6380   31.7180  182.0460 C.2    91  GLU91       0.2260
    121  O         49.8200   31.6120  182.3670 O.2    91  GLU91      -0.2867
    122  CB        48.0080   30.5210  180.0190 C.3    91  GLU91       0.0388
    123  CG        47.7330   30.4430  178.5400 C.3    91  GLU91       0.1160
    124  CD        47.7440   29.0130  178.0160 C.2    91  GLU91       0.3649
    125  OE1       48.2400   28.1010  178.7150 O.co2  91  GLU91      -0.2457
    126  OE2       47.2440   28.7920  176.8980 O.co2  91  GLU91      -0.2457
    127  N         33.3900   28.0660  180.6790 N.3   130  ASP130     -0.1239
    128  CA        34.6930   27.4590  180.4020 C.3   130  ASP130      0.1674
    129  C         35.8660   28.0020  181.2340 C.2   130  ASP130      0.2266
    130  O         36.9570   28.2400  180.6930 O.2   130  ASP130     -0.2867
    131  CB        34.9950   27.5320  178.8860 C.3   130  ASP130      0.1410
    132  CG        36.0350   26.5010  178.4330 C.2   130  ASP130      0.3668
    133  OD1       36.2710   25.5180  179.1660 O.co2 130  ASP130     -0.2456
    134  OD2       36.6230   26.6800  177.3460 O.co2 130  ASP130     -0.2456
    135  N         38.9760   28.0250  183.1420 N.3   132  LYS132     -0.1245
    136  CA        40.1390   27.1520  183.1790 C.3   132  LYS132      0.1561
    137  C         41.4060   27.9680  183.1040 C.2   132  LYS132      0.2260
    138  O         41.3920   29.0910  182.6030 O.2   132  LYS132     -0.2867
    139  CB        40.1060   26.0770  182.0780 C.3   132  LYS132      0.0271
    140  CG        40.1400   26.5340  180.6480 C.3   132  LYS132      0.0035
    141  CD        40.1570   25.3100  179.7700 C.3   132  LYS132      0.0206
    142  CE        40.0850   25.6710  178.3190 C.3   132  LYS132      0.1093
    143  NZ        39.9930   24.4600  177.4500 N.3   132  LYS132     -0.1314
    144  N         43.9200   27.7850  181.1620 N.3   134  GLU134     -0.1231
    145  CA        44.3160   28.1090  179.7840 C.3   134  GLU134      0.1699
    146  C         43.5700   29.3260  179.2320 C.2   134  GLU134      0.2592
    147  O         44.0390   29.9700  178.2860 O.2   134  GLU134     -0.2718
    148  CB        44.0970   26.9100  178.8440 C.3   134  GLU134      0.0402
    149  CG        45.0070   25.7040  179.1020 C.3   134  GLU134      0.1161
    150  CD        44.4180   24.6720  180.0570 C.2   134  GLU134      0.3649
    151  OE1       43.5990   25.0290  180.9340 O.co2 134  GLU134     -0.2457
    152  OE2       44.7910   23.4860  179.9340 O.co2 134  GLU134     -0.2457
    153  N         42.4190   29.6320  179.8360 N.am  135  ASN135     -0.1974
    154  CA        41.5750   30.7670  179.4400 C.3   135  ASN135      0.1688
    155  C         41.7550   32.0130  180.3030 C.2   135  ASN135      0.2292
    156  O         41.1580   33.0560  180.0240 O.2   135  ASN135     -0.2864
    157  CB        40.0960   30.3680  179.4530 C.3   135  ASN135      0.1181
    158  CG        39.7250   29.4560  178.3040 C.2   135  ASN135      0.2629
    159  OD1       40.5280   29.2230  177.4020 O.2   135  ASN135     -0.2716
    160  ND2       38.4950   28.9420  178.3250 N.am  135  ASN135     -0.0877
    161  N         44.2810   34.7070  181.3920 N.3   137  MET137     -0.1245
    162  CA        45.5480   35.3320  181.0100 C.3   137  MET137      0.1570
    163  C         45.9710   36.4640  181.9300 C.2   137  MET137      0.2261
    164  O         45.1900   36.9400  182.7450 O.2   137  MET137     -0.2867
    165  CB        45.4420   35.9360  179.6040 C.3   137  MET137      0.0387
    166  CG        44.7800   35.0930  178.5310 C.3   137  MET137      0.0595
    167  SD        45.6490   33.5830  178.1460 S.3   137  MET137     -0.1393
    168  CE        47.0480   34.2380  177.2670 C.3   137  MET137      0.0692
    169  N         39.9020   35.3820  178.5900 N.3   147  THR147     -0.1203
    170  CA        39.7770   35.3110  177.1420 C.3   147  THR147      0.1994
    171  C         38.8990   34.0980  176.8280 C.2   147  THR147      0.2617
    172  O         38.3790   33.4670  177.7530 O.2   147  THR147     -0.2717
    173  CB        41.1790   35.2090  176.4520 C.3   147  THR147      0.1784
    174  OG1       41.0370   35.4490  175.0480 O.3   147  THR147     -0.2211
    175  CG2       41.8330   33.8310  176.6720 C.3   147  THR147      0.0376
    176  N         38.7210   33.7990  175.5370 N.am  148  ASP148     -0.1973
    177  CA        37.9310   32.6550  175.0530 C.3   148  ASP148      0.1709
    178  C         36.4730   32.6250  175.5360 C.2   148  ASP148      0.2293
    179  O         36.1180   31.9010  176.4750 O.2   148  ASP148     -0.2864
    180  CB        38.6580   31.3360  175.3770 C.3   148  ASP148      0.1436
    181  CG        37.9890   30.1090  174.7700 C.2   148  ASP148      0.3671
    182  OD1       37.0990   30.2520  173.8990 O.co2 148  ASP148     -0.2456
    183  OD2       38.3610   28.9880  175.1710 O.co2 148  ASP148     -0.2456
    184  N         34.0740   31.4900  173.7350 N.3   150  GLY150     -0.1210
    185  CA        33.4810   30.5180  172.8230 C.3   150  GLY150      0.1956
    186  C         32.3070   29.6750  173.2720 C.2   150  GLY150      0.2611
    187  O         31.5430   29.1860  172.4340 O.2   150  GLY150     -0.2717
    188  N         32.1880   29.4690  174.5820 N.am  151  LEU151     -0.1979
    189  CA        31.1050   28.6660  175.1390 C.3   151  LEU151      0.1596
    190  C         30.1470   29.4520  176.0220 C.2   151  LEU151      0.2287
    191  O         29.4030   28.8740  176.8170 O.2   151  LEU151     -0.2864
    192  CB        31.6630   27.4390  175.8740 C.3   151  LEU151      0.0297
    193  CG        32.1850   26.3110  174.9730 C.3   151  LEU151      0.0022
    194  CD1       32.8080   25.2340  175.8180 C.3   151  LEU151      0.0001
    195  CD2       31.0690   25.7370  174.0940 C.3   151  LEU151      0.0001
    196  N         54.7260   32.2510  176.8190 N.3   293  PHE293     -0.1241
    197  CA        53.9350   31.3590  175.9830 C.3   293  PHE293      0.1605
    198  C         54.7990   30.1370  175.7030 C.2   293  PHE293      0.2264
    199  O         56.0300   30.2450  175.6260 O.2   293  PHE293     -0.2867
    200  CB        53.5250   32.0550  174.6840 C.3   293  PHE293      0.0534
    201  CG        52.4650   33.0990  174.8730 C.ar  293  PHE293     -0.0203
    202  CD1       52.8140   34.4310  175.1760 C.ar  293  PHE293     -0.0042
    203  CD2       51.1050   32.7520  174.7790 C.ar  293  PHE293     -0.0042
    204  CE1       51.8200   35.4170  175.3860 C.ar  293  PHE293     -0.0003
    205  CE2       50.0900   33.7270  174.9870 C.ar  293  PHE293     -0.0003
    206  CZ        50.4520   35.0630  175.2910 C.ar  293  PHE293     -0.0000
@<TRIPOS>BOND
     1    72    71    2
     2    71    70    1
     3    70    69    1
     4    70    73    1
     5    21    20    1
     6    73    74    1
     7    36    35    2
     8    20    19    1
     9    63    62    2
    10    74    75    1
    11    74    76    1
    12    35    34    1
    13    35    44   am
    14    62    61    1
    15    45    44    1
    16    45    46    1
    17    19    18    1
    18    29    28    2
    19    34    37    1
    20    34    33    1
    21    46    47    2
    22    60    61    1
    23    18    17    1
    24    61    64    1
    25    37    38    1
    26    28    33   am
    27    28    27    1
    28    40    38   ar
    29    40    42   ar
    30    48    49    1
    31    50    49    1
    32    50    51    2
    33    38    39   ar
    34    25    24    2
    35    42    43   ar
    36    49    52    1
    37    64    65    1
    38    65    66    1
    39    27    30    1
    40    27    26    1
    41    17    14    1
    42    32    30    1
    43    57    58    2
    44    57    56    1
    45    12    11    2
    46    24    26   am
    47    24    23    1
    48    30    31    1
    49    14    15    1
    50    14    13    1
    51    39    41   ar
    52     1     2    1
    53    84    85    1
    54    22    23    1
    55    22    15   am
    56    43    41   ar
    57    66    67    1
    58    56    55    1
    59    56    59    1
    60    52    54    1
    61    52    53    1
    62    67    68    1
    63    15    16    2
    64    11    13   am
    65    11    10    1
    66     9    10    1
    67     9     3   am
    68    87    86    2
    69     2     5    1
    70     2     3    1
    71     6     7    1
    72     6     5    1
    73     6     8    1
    74    85    86    1
    75    85    88    1
    76    89    88    1
    77    89    90    1
    78    91    90    1
    79     3     4    2
    80    86    92   am
    81    92    93    1
    82   187   186    2
    83   105   106    1
    84   105   102    1
    85   185   186    1
    86   185   184    1
    87   106   107   ar
    88   106   108   ar
    89   107   109   ar
    90   108   110   ar
    91    93    94    1
    92    93    96    1
    93   109   111   ar
    94   110   111   ar
    95   101    94   am
    96   101   102    1
    97   186   188   am
    98   111   112    1
    99    94    95    2
   100   102   103    1
   101   182   181   ar
   102   195   193    1
   103    96    97    1
   104   188   189    1
   105   200   201    1
   106   200   197    1
   107   181   183   ar
   108   181   180    1
   109   203   201   ar
   110   203   205   ar
   111   201   202   ar
   112   193   194    1
   113   193   192    1
   114   205   206   ar
   115   103   113   am
   116   103   104    2
   117   174   173    1
   118   177   180    1
   119   177   178    1
   120   177   176    1
   121    83    81    1
   122   189   192    1
   123   189   190    1
   124   202   204   ar
   125   206   204   ar
   126    97    98    1
   127   178   179    2
   128   176   171   am
   129   113   114    1
   130   199   198    2
   131   198   197    1
   132    80    79    2
   133   197   196    1
   134   190   191    2
   135    79    78    1
   136    81    78    1
   137    81    82    1
   138   173   175    1
   139   173   170    1
   140    98    99   ar
   141    98   100   ar
   142   171   170    1
   143   171   172    2
   144   116   115    2
   145   126   124   ar
   146   114   115    1
   147   114   117    1
   148    78    77    1
   149   170   169    1
   150   168   167    1
   151   134   132   ar
   152   159   158    2
   153   143   142    1
   154   124   123    1
   155   124   125   ar
   156   167   166    1
   157   147   146    2
   158   158   160   am
   159   158   157    1
   160   142   141    1
   161   132   131    1
   162   132   133   ar
   163   166   165    1
   164   123   122    1
   165   148   149    1
   166   148   145    1
   167   131   128    1
   168   149   150    1
   169   146   145    1
   170   146   153   am
   171   154   157    1
   172   154   153    1
   173   154   155    1
   174   165   162    1
   175   141   140    1
   176   145   144    1
   177   118   119    1
   178   152   150   ar
   179   122   119    1
   180   156   155    2
   181   150   151   ar
   182   128   127    1
   183   128   129    1
   184   119   120    1
   185   140   139    1
   186   130   129    2
   187   162   161    1
   188   162   163    1
   189   163   164    2
   190   120   121    2
   191   139   136    1
   192   138   137    2
   193   137   136    1
   194   135   136    1
