@<TRIPOS>MOLECULE
tmp/1o6pA01.pdb
 96 89 0 0 0
SMALL
GASTEIGER

@<TRIPOS>ATOM
      1  N        -26.5970   89.3350   46.0410 N.3   171  ASN171     -0.1240
      2  CA       -26.2670   88.8120   44.7200 C.3   171  ASN171      0.1653
      3  C        -24.8200   88.4100   44.5700 C.2   171  ASN171      0.2266
      4  O        -24.4960   87.4460   43.8770 O.2   171  ASN171     -0.2867
      5  CB       -26.6300   89.8170   43.6340 C.3   171  ASN171      0.1155
      6  CG       -28.1140   89.7840   43.2860 C.2   171  ASN171      0.2627
      7  OD1      -28.9410   90.4090   43.9670 O.2   171  ASN171     -0.2716
      8  ND2      -28.4650   89.0280   42.2330 N.am  171  ASN171     -0.0877
      9  N        -24.3290   85.0810   46.7940 N.3   174  LEU174     -0.1231
     10  CA       -25.0180   83.9680   46.1300 C.3   174  LEU174      0.1693
     11  C        -24.2600   83.4470   44.9480 C.2   174  LEU174      0.2592
     12  O        -24.3130   82.2510   44.6690 O.2   174  LEU174     -0.2718
     13  CB       -26.4070   84.3920   45.6890 C.3   174  LEU174      0.0284
     14  CG       -27.4010   83.3320   45.3140 C.3   174  LEU174      0.0019
     15  CD1      -27.7490   82.5510   46.5380 C.3   174  LEU174      0.0001
     16  CD2      -28.6140   84.0360   44.6850 C.3   174  LEU174      0.0001
     17  N        -23.5480   84.3410   44.2680 N.am  175  THR175     -0.1953
     18  CA       -22.7560   83.9740   43.1040 C.3   175  THR175      0.1897
     19  C        -21.6070   83.0840   43.5300 C.2   175  THR175      0.2313
     20  O        -21.3710   82.0360   42.9220 O.2   175  THR175     -0.2863
     21  CB       -22.1990   85.2160   42.4260 C.3   175  THR175      0.1794
     22  OG1      -23.2790   86.1020   42.1140 O.3   175  THR175     -0.2208
     23  CG2      -21.4460   84.8500   41.1590 C.3   175  THR175      0.0378
     24  N        -23.1560   79.6330   44.9030 N.3   178  ILE178     -0.1231
     25  CA       -23.5740   78.7950   43.7650 C.3   178  ILE178      0.1692
     26  C        -22.3950   78.3590   42.9340 C.2   178  ILE178      0.2591
     27  O        -22.4210   77.3240   42.2820 O.2   178  ILE178     -0.2718
     28  CB       -24.6040   79.5170   42.8690 C.3   178  ILE178      0.0266
     29  CG1      -25.8670   79.7990   43.6860 C.3   178  ILE178      0.0019
     30  CG2      -24.9360   78.6740   41.6300 C.3   178  ILE178      0.0020
     31  CD1      -26.5440   78.5430   44.1880 C.3   178  ILE178      0.0001
     32  N        -21.3310   79.1330   43.0080 N.am  179  GLN179     -0.1979
     33  CA       -20.1210   78.8170   42.2800 C.3   179  GLN179      0.1601
     34  C        -19.4280   77.5560   42.8010 C.2   179  GLN179      0.2287
     35  O        -19.0010   76.7200   42.0100 O.2   179  GLN179     -0.2864
     36  CB       -19.1770   80.0110   42.3720 C.3   179  GLN179      0.0394
     37  CG       -17.8490   79.8000   41.7280 C.3   179  GLN179      0.0908
     38  CD       -18.0050   79.5730   40.2710 C.2   179  GLN179      0.2608
     39  OE1      -17.0420   79.2290   39.5970 O.2   179  GLN179     -0.2717
     40  NE2      -19.2290   79.7660   39.7560 N.am  179  GLN179     -0.0878
     41  N        -21.8600   74.2240   41.9080 N.3   182  ARG182     -0.1245
     42  CA       -22.1440   73.6340   40.6130 C.3   182  ARG182      0.1563
     43  C        -21.2620   72.4170   40.3810 C.2   182  ARG182      0.2260
     44  O        -20.0890   72.4230   40.7300 O.2   182  ARG182     -0.2867
     45  CB       -22.0240   74.6920   39.4960 C.3   182  ARG182      0.0307
     46  CG       -20.6340   75.0310   38.9620 C.3   182  ARG182      0.0489
     47  CD       -20.7630   76.0590   37.8180 C.3   182  ARG182      0.2205
     48  NE       -21.6530   75.5900   36.7480 N.pl3 182  ARG182     -0.0865
     49  CZ       -22.0100   76.3130   35.6890 C.cat 182  ARG182      0.5346
     50  NH1      -21.5550   77.5550   35.5450 N.pl3 182  ARG182      0.1354
     51  NH2      -22.8250   75.7880   34.7740 N.pl3 182  ARG182      0.1354
     52  N        -33.9320   86.7880   44.6260 N.3   208  ASN208     -0.1240
     53  CA       -33.3500   85.8820   43.6310 C.3   208  ASN208      0.1653
     54  C        -34.2770   84.7280   43.3180 C.2   208  ASN208      0.2266
     55  O        -34.2770   84.2010   42.2110 O.2   208  ASN208     -0.2867
     56  CB       -32.0290   85.3070   44.1490 C.3   208  ASN208      0.1155
     57  CG       -30.9460   86.3390   44.2560 C.2   208  ASN208      0.2627
     58  OD1      -30.2130   86.5820   43.2950 O.2   208  ASN208     -0.2716
     59  ND2      -30.8430   86.9730   45.4210 N.am  208  ASN208     -0.0877
     60  N        -36.9630   85.7960   40.7020 N.3   211  LYS211     -0.1245
     61  CA       -36.6500   85.7760   39.2870 C.3   211  LYS211      0.1561
     62  C        -36.5850   84.3090   38.8590 C.2   211  LYS211      0.2260
     63  O        -35.6550   83.5880   39.2020 O.2   211  LYS211     -0.2867
     64  CB       -35.3190   86.4740   39.0280 C.3   211  LYS211      0.0271
     65  CG       -35.2570   87.8940   39.5950 C.3   211  LYS211      0.0035
     66  CD       -33.8840   88.5560   39.4030 C.3   211  LYS211      0.0206
     67  CE       -33.7160   89.8100   40.2790 C.3   211  LYS211      0.1093
     68  NZ       -32.2820   90.1950   40.4670 N.3   211  LYS211     -0.1314
     69  N        -33.2960   82.6940   37.7600 N.3   214  GLU214     -0.1245
     70  CA       -32.3720   82.3180   38.8240 C.3   214  GLU214      0.1567
     71  C        -32.8880   81.1930   39.7410 C.2   214  GLU214      0.2260
     72  O        -32.1330   80.2890   40.1010 O.2   214  GLU214     -0.2867
     73  CB       -32.0400   83.5550   39.6640 C.3   214  GLU214      0.0388
     74  CG       -31.7180   84.7860   38.8180 C.3   214  GLU214      0.1160
     75  CD       -31.1590   85.9770   39.6100 C.2   214  GLU214      0.3649
     76  OE1      -31.7010   86.3220   40.6960 O.co2 214  GLU214     -0.2457
     77  OE2      -30.1750   86.5930   39.1250 O.co2 214  GLU214     -0.2457
     78  N        -32.1280   77.9660   38.4800 N.3   217  PHE217     -0.1227
     79  CA       -30.7250   77.5710   38.5600 C.3   217  PHE217      0.1736
     80  C        -30.3490   77.1270   39.9770 C.2   217  PHE217      0.2595
     81  O        -29.6860   76.0970   40.1680 O.2   217  PHE217     -0.2718
     82  CB       -29.8160   78.7130   38.0920 C.3   217  PHE217      0.0547
     83  CG       -28.4070   78.2870   37.8500 C.ar  217  PHE217     -0.0202
     84  CD1      -28.1310   77.0530   37.2580 C.ar  217  PHE217     -0.0042
     85  CD2      -27.3530   79.0940   38.2460 C.ar  217  PHE217     -0.0042
     86  CE1      -26.8110   76.6380   37.0670 C.ar  217  PHE217     -0.0003
     87  CE2      -26.0400   78.6950   38.0610 C.ar  217  PHE217     -0.0003
     88  CZ       -25.7650   77.4620   37.4760 C.ar  217  PHE217     -0.0000
     89  N        -30.7740   77.9000   40.9690 N.am  218  ILE218     -0.1980
     90  CA       -30.5150   77.5550   42.3600 C.3   218  ILE218      0.1595
     91  C        -31.0580   76.1470   42.5770 C.2   218  ILE218      0.2287
     92  O        -30.3080   75.2490   42.9750 O.2   218  ILE218     -0.2864
     93  CB       -31.2290   78.5560   43.3220 C.3   218  ILE218      0.0276
     94  CG1      -30.5200   79.9150   43.2880 C.3   218  ILE218      0.0022
     95  CG2      -31.2640   78.0400   44.7390 C.3   218  ILE218      0.0022
     96  CD1      -31.3190   81.0340   43.9230 C.3   218  ILE218      0.0001
@<TRIPOS>BOND
     1    51    49    1
     2    50    49    1
     3    49    48    2
     4    48    47    1
     5    86    84   ar
     6    86    88   ar
     7    84    83   ar
     8    88    87   ar
     9    69    70    1
    10    47    46    1
    11    83    82    1
    12    83    85   ar
    13    87    85   ar
    14    82    79    1
    15    78    79    1
    16    79    80    1
    17    74    75    1
    18    74    73    1
    19    70    73    1
    20    70    71    1
    21    62    63    2
    22    62    61    1
    23    46    45    1
    24    64    61    1
    25    64    65    1
    26    77    75   ar
    27    61    60    1
    28    66    65    1
    29    66    67    1
    30    45    42    1
    31    39    38    2
    32    75    76   ar
    33    71    72    2
    34    40    38   am
    35    80    81    2
    36    80    89   am
    37    38    37    1
    38    67    68    1
    39    43    42    1
    40    43    44    2
    41    42    41    1
    42    89    90    1
    43    23    21    1
    44    30    28    1
    45    37    36    1
    46    35    34    2
    47    22    21    1
    48    55    54    2
    49     8     6   am
    50    33    36    1
    51    33    34    1
    52    33    32    1
    53    27    26    2
    54    90    91    1
    55    90    93    1
    56    21    18    1
    57    91    92    2
    58    28    29    1
    59    28    25    1
    60    20    19    2
    61    26    32   am
    62    26    25    1
    63    18    19    1
    64    18    17    1
    65     6     5    1
    66     6     7    2
    67    94    93    1
    68    94    96    1
    69    58    57    2
    70    54    53    1
    71    93    95    1
    72    53    56    1
    73    53    52    1
    74     5     2    1
    75    29    31    1
    76    25    24    1
    77     4     3    2
    78    56    57    1
    79    57    59   am
    80    17    11   am
    81     3     2    1
    82    12    11    2
    83    16    14    1
    84     2     1    1
    85    11    10    1
    86    14    13    1
    87    14    15    1
    88    13    10    1
    89    10     9    1
