@<TRIPOS>MOLECULE
tmp/1o6qA01.pdb
 262 255 0 0 0
SMALL
GASTEIGER

@<TRIPOS>ATOM
      1  N         60.0900   60.4010   66.9600 N.3    27  LEU27      -0.1245
      2  CA        61.3470   61.0540   66.6530 C.3    27  LEU27       0.1561
      3  C         62.4280   60.5620   67.6000 C.2    27  LEU27       0.2260
      4  O         62.3200   60.7260   68.8100 O.2    27  LEU27      -0.2867
      5  CB        61.1710   62.5690   66.7830 C.3    27  LEU27       0.0270
      6  CG        62.2990   63.4720   66.2880 C.3    27  LEU27       0.0019
      7  CD1       62.4710   63.3230   64.7770 C.3    27  LEU27       0.0001
      8  CD2       61.9690   64.9030   66.6690 C.3    27  LEU27       0.0001
      9  N         67.4250   63.1830   76.7770 N.3    33  MET33      -0.1245
     10  CA        66.0220   63.5530   76.8660 C.3    33  MET33       0.1570
     11  C         65.4490   62.9070   78.1120 C.2    33  MET33       0.2261
     12  O         64.9950   63.6010   79.0280 O.2    33  MET33      -0.2867
     13  CB        65.2520   63.0440   75.6460 C.3    33  MET33       0.0387
     14  CG        65.7260   63.5910   74.3090 C.3    33  MET33       0.0595
     15  SD        65.4750   65.3700   74.1350 S.3    33  MET33      -0.1393
     16  CE        66.9960   65.9470   74.7700 C.3    33  MET33       0.0692
     17  N         79.6260   69.6020   78.2570 N.3   118  ARG118     -0.1245
     18  CA        79.0070   70.8180   77.7620 C.3   118  ARG118      0.1563
     19  C         78.3930   71.5800   78.9290 C.2   118  ARG118      0.2260
     20  O         78.1690   71.0190   80.0080 O.2   118  ARG118     -0.2867
     21  CB        77.9070   70.4640   76.7550 C.3   118  ARG118      0.0307
     22  CG        76.8420   69.5320   77.3400 C.3   118  ARG118      0.0489
     23  CD        75.6730   69.2600   76.3990 C.3   118  ARG118      0.2205
     24  NE        74.5960   68.5540   77.1000 N.pl3 118  ARG118     -0.0865
     25  CZ        73.4270   68.2340   76.5540 C.cat 118  ARG118      0.5346
     26  NH1       73.1830   68.5570   75.2900 N.pl3 118  ARG118      0.1354
     27  NH2       72.5040   67.5960   77.2670 N.pl3 118  ARG118      0.1354
     28  N         75.3020   72.7400   79.4320 N.3   120  PHE120     -0.1241
     29  CA        74.0450   72.1640   79.8740 C.3   120  PHE120      0.1605
     30  C         74.2310   71.0710   80.9060 C.2   120  PHE120      0.2264
     31  O         73.6070   71.0940   81.9760 O.2   120  PHE120     -0.2867
     32  CB        73.2580   71.6130   78.6840 C.3   120  PHE120      0.0534
     33  CG        72.5830   72.6780   77.8710 C.ar  120  PHE120     -0.0203
     34  CD1       71.9250   73.7380   78.5020 C.ar  120  PHE120     -0.0042
     35  CD2       72.6060   72.6340   76.4760 C.ar  120  PHE120     -0.0042
     36  CE1       71.3060   74.7350   77.7570 C.ar  120  PHE120     -0.0003
     37  CE2       71.9820   73.6340   75.7160 C.ar  120  PHE120     -0.0003
     38  CZ        71.3340   74.6830   76.3550 C.ar  120  PHE120     -0.0000
     39  N         64.9380   78.2970   68.5900 N.3   160  TRP160     -0.1241
     40  CA        65.1320   77.2320   69.5780 C.3   160  TRP160      0.1605
     41  C         66.0450   77.6290   70.7450 C.2   160  TRP160      0.2264
     42  O         65.8830   77.1440   71.8690 O.2   160  TRP160     -0.2867
     43  CB        65.6800   75.9870   68.8820 C.3   160  TRP160      0.0550
     44  CG        66.9880   76.2010   68.2030 C.ar  160  TRP160      0.0003
     45  CD1       68.2300   76.2360   68.7880 C.ar  160  TRP160      0.0946
     46  CD2       67.1970   76.4280   66.8030 C.ar  160  TRP160      0.0152
     47  NE1       69.1980   76.4710   67.8350 N.ar  160  TRP160     -0.2442
     48  CE2       68.5930   76.5930   66.6090 C.ar  160  TRP160      0.0810
     49  CE3       66.3410   76.5140   65.6920 C.ar  160  TRP160      0.0012
     50  CZ2       69.1520   76.8380   65.3470 C.ar  160  TRP160      0.0191
     51  CZ3       66.8980   76.7600   64.4340 C.ar  160  TRP160      0.0001
     52  CH2       68.2930   76.9190   64.2760 C.ar  160  TRP160      0.0015
     53  N         65.0290   79.1810   75.3380 N.3   164  THR164     -0.1218
     54  CA        65.8690   78.5740   76.3550 C.3   164  THR164      0.1862
     55  C         66.6140   79.6370   77.1270 C.2   164  THR164      0.2287
     56  O         66.7000   79.5760   78.3550 O.2   164  THR164     -0.2866
     57  CB        66.8900   77.6300   75.7180 C.3   164  THR164      0.1770
     58  OG1       66.1920   76.6300   74.9590 O.3   164  THR164     -0.2211
     59  CG2       67.7490   76.9670   76.7940 C.3   164  THR164      0.0375
     60  N         59.6200   71.7820   71.6710 N.3   252  ILE252     -0.1245
     61  CA        60.9410   71.1760   71.7630 C.3   252  ILE252      0.1561
     62  C         61.2490   70.9950   73.2350 C.2   252  ILE252      0.2260
     63  O         60.8370   71.7870   74.0840 O.2   252  ILE252     -0.2867
     64  CB        62.0560   72.0190   71.0670 C.3   252  ILE252      0.0252
     65  CG1       62.2570   73.3650   71.7630 C.3   252  ILE252      0.0019
     66  CG2       61.6980   72.2170   69.6040 C.3   252  ILE252      0.0019
     67  CD1       63.4440   74.1330   71.2400 C.3   252  ILE252      0.0001
     68  N         64.0580   71.2130   75.3850 N.3   254  PRO254     -0.2116
     69  CA        64.8030   72.2140   76.1600 C.3   254  PRO254      0.1372
     70  C         64.0620   73.3520   76.8630 C.2   254  PRO254      0.2244
     71  O         63.8690   73.3220   78.0870 O.2   254  PRO254     -0.2868
     72  CB        65.8410   72.7180   75.1580 C.3   254  PRO254      0.0268
     73  CG        65.9370   71.5950   74.1610 C.3   254  PRO254      0.0207
     74  CD        64.5180   71.2040   73.9870 C.3   254  PRO254      0.0892
     75  N         62.2330   64.3810   71.6120 N.3   297  ALA297     -0.1231
     76  CA        62.8180   65.7140   71.6590 C.3   297  ALA297      0.1694
     77  C         61.8250   66.7190   71.0490 C.2   297  ALA297      0.2592
     78  O         61.7680   67.8870   71.4560 O.2   297  ALA297     -0.2718
     79  CB        64.1220   65.7200   70.8990 C.3   297  ALA297      0.0304
     80  N         61.0520   66.2490   70.0700 N.am  298  SER298     -0.1952
     81  CA        60.0190   67.0520   69.4100 C.3   298  SER298      0.1924
     82  C         59.0750   66.0860   68.7020 C.2   298  SER298      0.2314
     83  O         59.2330   64.8790   68.8280 O.2   298  SER298     -0.2863
     84  CB        60.6290   68.0170   68.4010 C.3   298  SER298      0.2116
     85  OG        59.6310   68.8340   67.8210 O.3   298  SER298     -0.2180
     86  N         54.9860   67.5510   59.3930 N.3   303  TRP303     -0.1241
     87  CA        56.0470   67.1310   58.4890 C.3   303  TRP303      0.1605
     88  C         55.7960   65.7110   57.9280 C.2   303  TRP303      0.2264
     89  O         55.7700   65.4990   56.7090 O.2   303  TRP303     -0.2867
     90  CB        57.3670   67.1790   59.2440 C.3   303  TRP303      0.0550
     91  CG        58.5520   66.8900   58.4130 C.ar  303  TRP303      0.0003
     92  CD1       59.3640   65.8020   58.4960 C.ar  303  TRP303      0.0946
     93  CD2       59.1020   67.7280   57.3980 C.ar  303  TRP303      0.0152
     94  NE1       60.3950   65.9100   57.5980 N.ar  303  TRP303     -0.2442
     95  CE2       60.2590   67.0850   56.9090 C.ar  303  TRP303      0.0810
     96  CE3       58.7330   68.9620   56.8530 C.ar  303  TRP303      0.0012
     97  CZ2       61.0530   67.6350   55.9020 C.ar  303  TRP303      0.0191
     98  CZ3       59.5210   69.5090   55.8530 C.ar  303  TRP303      0.0001
     99  CH2       60.6700   68.8450   55.3880 C.ar  303  TRP303      0.0015
    100  N         55.8590   72.3510   62.8120 N.3   356  PHE356     -0.1227
    101  CA        56.3650   70.9920   62.7210 C.3   356  PHE356      0.1736
    102  C         55.4180   70.1140   63.5140 C.2   356  PHE356      0.2595
    103  O         54.9430   69.0850   63.0320 O.2   356  PHE356     -0.2718
    104  CB        57.7760   70.9730   63.3300 C.3   356  PHE356      0.0547
    105  CG        58.5090   69.6530   63.2110 C.ar  356  PHE356     -0.0202
    106  CD1       58.6700   69.0280   61.9750 C.ar  356  PHE356     -0.0042
    107  CD2       59.1370   69.0930   64.3320 C.ar  356  PHE356     -0.0042
    108  CE1       59.4530   67.8760   61.8620 C.ar  356  PHE356     -0.0003
    109  CE2       59.9150   67.9500   64.2240 C.ar  356  PHE356     -0.0003
    110  CZ        60.0770   67.3410   62.9900 C.ar  356  PHE356     -0.0000
    111  N         55.1350   70.5460   64.7360 N.am  357  GLN357     -0.1979
    112  CA        54.2680   69.7870   65.5960 C.3   357  GLN357      0.1601
    113  C         52.7870   70.1050   65.4040 C.2   357  GLN357      0.2287
    114  O         52.4100   70.7340   64.4120 O.2   357  GLN357     -0.2864
    115  CB        54.7020   69.9240   67.0690 C.3   357  GLN357      0.0394
    116  CG        55.2860   71.2530   67.5180 C.3   357  GLN357      0.0908
    117  CD        56.6090   71.6060   66.8520 C.2   357  GLN357      0.2608
    118  OE1       56.6330   72.1980   65.7730 O.2   357  GLN357     -0.2717
    119  NE2       57.7120   71.2480   67.4960 N.am  357  GLN357     -0.0878
    120  N         57.6330   77.1300   60.4680 N.3   365  ASP365     -0.1239
    121  CA        58.9170   77.1330   59.7990 C.3   365  ASP365      0.1674
    122  C         58.7220   77.0370   58.2990 C.2   365  ASP365      0.2266
    123  O         57.7210   76.4880   57.8090 O.2   365  ASP365     -0.2867
    124  CB        59.8140   75.9820   60.2980 C.3   365  ASP365      0.1410
    125  CG        59.2480   74.6020   59.9690 C.2   365  ASP365      0.3668
    126  OD1       58.3150   74.1400   60.6640 O.co2 365  ASP365     -0.2456
    127  OD2       59.7390   73.9840   59.0010 O.co2 365  ASP365     -0.2456
    128  N         60.4500   75.2900   56.0800 N.3   367  ASP367     -0.1225
    129  CA        60.4960   73.9180   55.5940 C.3   367  ASP367      0.1805
    130  C         59.1120   73.2680   55.5990 C.2   367  ASP367      0.2597
    131  O         58.6210   72.8340   54.5480 O.2   367  ASP367     -0.2718
    132  CB        61.4820   73.0970   56.4330 C.3   367  ASP367      0.1424
    133  CG        62.3540   72.2020   55.5820 C.2   367  ASP367      0.3668
    134  OD1       62.1610   72.2010   54.3510 O.co2 367  ASP367     -0.2456
    135  OD2       63.2260   71.5020   56.1330 O.co2 367  ASP367     -0.2456
    136  N         58.4800   73.2040   56.7710 N.am  368  ASP368     -0.1974
    137  CA        57.1480   72.6100   56.8700 C.3   368  ASP368      0.1709
    138  C         56.1820   73.3180   55.9200 C.2   368  ASP368      0.2293
    139  O         55.5070   72.6790   55.1030 O.2   368  ASP368     -0.2864
    140  CB        56.6280   72.6970   58.3110 C.3   368  ASP368      0.1436
    141  CG        57.0840   71.5320   59.1660 C.2   368  ASP368      0.3671
    142  OD1       56.5970   70.4000   58.9430 O.co2 368  ASP368     -0.2456
    143  OD2       57.9350   71.7450   60.0540 O.co2 368  ASP368     -0.2456
    144  N         65.0080   78.7910   58.5860 N.3   410  ALA410     -0.1231
    145  CA        63.9270   77.9180   59.0250 C.3   410  ALA410      0.1694
    146  C         62.7910   78.6490   59.7290 C.2   410  ALA410      0.2592
    147  O         61.6110   78.4420   59.4160 O.2   410  ALA410     -0.2718
    148  CB        64.4820   76.8330   59.9440 C.3   410  ALA410      0.0304
    149  N         63.1630   79.5070   60.6740 N.am  411  TYR411     -0.1976
    150  CA        62.1990   80.2490   61.4700 C.3   411  TYR411      0.1639
    151  C         62.2080   81.7730   61.3190 C.2   411  TYR411      0.2290
    152  O         61.1530   82.4070   61.3630 O.2   411  TYR411     -0.2864
    153  CB        62.4020   79.8730   62.9360 C.3   411  TYR411      0.0560
    154  CG        62.1530   78.4080   63.2110 C.ar  411  TYR411     -0.0198
    155  CD1       60.8600   77.8870   63.1890 C.ar  411  TYR411     -0.0009
    156  CD2       63.2050   77.5440   63.5060 C.ar  411  TYR411     -0.0009
    157  CE1       60.6210   76.5460   63.4610 C.ar  411  TYR411      0.0417
    158  CE2       62.9730   76.2000   63.7800 C.ar  411  TYR411      0.0417
    159  CZ        61.6790   75.7130   63.7590 C.ar  411  TYR411      0.1957
    160  OH        61.4340   74.4030   64.0680 O.3   411  TYR411     -0.2866
    161  N         77.1170   74.3260   72.4720 N.3   428  PHE428     -0.1241
    162  CA        76.4110   73.1600   71.9530 C.3   428  PHE428      0.1605
    163  C         75.4920   73.4510   70.7660 C.2   428  PHE428      0.2264
    164  O         74.6330   74.3220   70.8420 O.2   428  PHE428     -0.2867
    165  CB        75.5930   72.5430   73.0770 C.3   428  PHE428      0.0534
    166  CG        75.0040   71.2120   72.7380 C.ar  428  PHE428     -0.0203
    167  CD1       75.7860   70.0700   72.7610 C.ar  428  PHE428     -0.0042
    168  CD2       73.6560   71.0930   72.4370 C.ar  428  PHE428     -0.0042
    169  CE1       75.2280   68.8200   72.4940 C.ar  428  PHE428     -0.0003
    170  CE2       73.0920   69.8550   72.1710 C.ar  428  PHE428     -0.0003
    171  CZ        73.8770   68.7140   72.2000 C.ar  428  PHE428     -0.0000
    172  N         66.5370   73.8350   52.8530 N.3   439  VAL439     -0.1245
    173  CA        65.2800   74.5690   52.9940 C.3   439  VAL439      0.1561
    174  C         65.0030   75.3250   51.7060 C.2   439  VAL439      0.2260
    175  O         63.9160   75.2420   51.1290 O.2   439  VAL439     -0.2867
    176  CB        65.3560   75.5980   54.1250 C.3   439  VAL439      0.0252
    177  CG1       64.0140   76.3180   54.2370 C.3   439  VAL439      0.0019
    178  CG2       65.7460   74.9170   55.4360 C.3   439  VAL439      0.0019
    179  N         69.5680   69.8220   57.7500 N.3   480  TRP480     -0.1241
    180  CA        68.6130   69.0720   58.5670 C.3   480  TRP480      0.1605
    181  C         68.4390   67.6140   58.1380 C.2   480  TRP480      0.2264
    182  O         67.4020   67.0000   58.3810 O.2   480  TRP480     -0.2867
    183  CB        67.2490   69.7620   58.5390 C.3   480  TRP480      0.0550
    184  CG        67.2920   71.2080   58.9440 C.ar  480  TRP480      0.0003
    185  CD1       67.4440   72.2800   58.1200 C.ar  480  TRP480      0.0946
    186  CD2       67.2250   71.7330   60.2790 C.ar  480  TRP480      0.0152
    187  NE1       67.4780   73.4420   58.8540 N.ar  480  TRP480     -0.2442
    188  CE2       67.3460   73.1330   60.1820 C.ar  480  TRP480      0.0810
    189  CE3       67.0770   71.1560   61.5460 C.ar  480  TRP480      0.0012
    190  CZ2       67.3250   73.9650   61.3060 C.ar  480  TRP480      0.0191
    191  CZ3       67.0560   71.9820   62.6620 C.ar  480  TRP480      0.0001
    192  CH2       67.1800   73.3680   62.5350 C.ar  480  TRP480      0.0015
    193  N         71.7400   64.0110   51.2550 N.3   486  TYR486     -0.1241
    194  CA        70.4580   64.6400   51.5690 C.3   486  TYR486      0.1605
    195  C         70.3050   65.9770   50.8390 C.2   486  TYR486      0.2264
    196  O         69.2900   66.2230   50.1680 O.2   486  TYR486     -0.2867
    197  CB        70.3350   64.8560   53.0880 C.3   486  TYR486      0.0534
    198  CG        69.0670   65.5830   53.4980 C.ar  486  TYR486     -0.0201
    199  CD1       67.8120   65.0990   53.1210 C.ar  486  TYR486     -0.0009
    200  CD2       69.1180   66.7520   54.2600 C.ar  486  TYR486     -0.0009
    201  CE1       66.6370   65.7570   53.4930 C.ar  486  TYR486      0.0417
    202  CE2       67.9440   67.4170   54.6400 C.ar  486  TYR486      0.0417
    203  CZ        66.7060   66.9080   54.2480 C.ar  486  TYR486      0.1957
    204  OH        65.5330   67.5410   54.5970 O.3   486  TYR486     -0.2866
    205  N         69.8260   67.4240   63.6180 N.3   591  GLY591     -0.1210
    206  CA        69.3300   68.4980   64.4650 C.3   591  GLY591      0.1956
    207  C         70.3370   69.6370   64.3940 C.2   591  GLY591      0.2611
    208  O         70.0360   70.7620   63.9840 O.2   591  GLY591     -0.2717
    209  N         71.5550   69.3280   64.8030 N.am  592  PHE592     -0.1976
    210  CA        72.6460   70.2780   64.7560 C.3   592  PHE592      0.1639
    211  C         73.8300   69.5140   64.2030 C.2   592  PHE592      0.2290
    212  O         74.1250   68.4110   64.6620 O.2   592  PHE592     -0.2864
    213  CB        72.9960   70.7710   66.1490 C.3   592  PHE592      0.0560
    214  CG        71.8790   71.4780   66.8380 C.ar  592  PHE592     -0.0200
    215  CD1       71.0780   72.3800   66.1440 C.ar  592  PHE592     -0.0042
    216  CD2       71.6770   71.3100   68.2020 C.ar  592  PHE592     -0.0042
    217  CE1       70.0950   73.1110   66.7970 C.ar  592  PHE592     -0.0003
    218  CE2       70.7000   72.0320   68.8680 C.ar  592  PHE592     -0.0003
    219  CZ        69.9080   72.9380   68.1620 C.ar  592  PHE592     -0.0000
    220  N         73.7680   67.0820   67.5400 N.3   596  PHE596     -0.1241
    221  CA        72.4760   66.4610   67.8120 C.3   596  PHE596      0.1605
    222  C         71.8870   65.8290   66.5490 C.2   596  PHE596      0.2264
    223  O         71.6110   66.5280   65.5640 O.2   596  PHE596     -0.2867
    224  CB        71.5200   67.5220   68.3430 C.3   596  PHE596      0.0534
    225  CG        70.3110   66.9690   69.0330 C.ar  596  PHE596     -0.0203
    226  CD1       70.4250   66.3560   70.2780 C.ar  596  PHE596     -0.0042
    227  CD2       69.0440   67.0930   68.4530 C.ar  596  PHE596     -0.0042
    228  CE1       69.2910   65.8790   70.9430 C.ar  596  PHE596     -0.0003
    229  CE2       67.8980   66.6180   69.1070 C.ar  596  PHE596     -0.0003
    230  CZ        68.0190   66.0120   70.3530 C.ar  596  PHE596     -0.0000
    231  N         68.9350   63.1000   64.7310 N.3   598  LEU598     -0.1245
    232  CA        67.5840   62.5910   64.8950 C.3   598  LEU598      0.1561
    233  C         67.2340   61.4520   63.9580 C.2   598  LEU598      0.2260
    234  O         67.6950   61.4050   62.8140 O.2   598  LEU598     -0.2867
    235  CB        66.5880   63.7020   64.6260 C.3   598  LEU598      0.0270
    236  CG        66.6520   64.9630   65.4660 C.3   598  LEU598      0.0019
    237  CD1       65.7880   66.0330   64.7870 C.3   598  LEU598      0.0001
    238  CD2       66.1960   64.6550   66.8990 C.3   598  LEU598      0.0001
    239  N         64.2490   59.9430   61.9630 N.3   600  TYR600     -0.1241
    240  CA        62.8900   60.1300   61.4840 C.3   600  TYR600      0.1605
    241  C         62.3350   58.7760   61.0600 C.2   600  TYR600      0.2264
    242  O         62.6250   58.2580   59.9780 O.2   600  TYR600     -0.2867
    243  CB        62.8370   61.1090   60.3030 C.3   600  TYR600      0.0534
    244  CG        63.0410   62.5730   60.6630 C.ar  600  TYR600     -0.0201
    245  CD1       64.3100   63.0690   60.9670 C.ar  600  TYR600     -0.0009
    246  CD2       61.9630   63.4610   60.7070 C.ar  600  TYR600     -0.0009
    247  CE1       64.5060   64.4100   61.3080 C.ar  600  TYR600      0.0417
    248  CE2       62.1450   64.8070   61.0490 C.ar  600  TYR600      0.0417
    249  CZ        63.4240   65.2750   61.3490 C.ar  600  TYR600      0.1957
    250  OH        63.6240   66.6010   61.6900 O.3   600  TYR600     -0.2866
    251  N         60.8580   58.2380   57.4910 N.3   603  TYR603     -0.1241
    252  CA        61.7410   58.4140   56.3420 C.3   603  TYR603      0.1605
    253  C         61.9260   57.1400   55.5650 C.2   603  TYR603      0.2264
    254  O         61.7610   57.1190   54.3440 O.2   603  TYR603     -0.2867
    255  CB        63.1070   58.9430   56.7880 C.3   603  TYR603      0.0534
    256  CG        63.1730   60.4490   56.9410 C.ar  603  TYR603     -0.0201
    257  CD1       62.0080   61.2160   57.0530 C.ar  603  TYR603     -0.0009
    258  CD2       64.4010   61.1070   57.0140 C.ar  603  TYR603     -0.0009
    259  CE1       62.0580   62.6030   57.2380 C.ar  603  TYR603      0.0417
    260  CE2       64.4680   62.4930   57.2000 C.ar  603  TYR603      0.0417
    261  CZ        63.2920   63.2340   57.3130 C.ar  603  TYR603      0.1957
    262  OH        63.3570   64.5950   57.5190 O.3   603  TYR603     -0.2866
@<TRIPOS>BOND
     1   196   195    2
     2   195   194    1
     3   175   174    2
     4   193   194    1
     5   194   197    1
     6   174   173    1
     7   172   173    1
     8   173   176    1
     9   197   198    1
    10   199   201   ar
    11   199   198   ar
    12   201   203   ar
    13   198   200   ar
    14   176   177    1
    15   176   178    1
    16   203   204    1
    17   203   202   ar
    18   200   202   ar
    19   254   253    2
    20   134   133   ar
    21   131   130    2
    22   139   138    2
    23    99    98   ar
    24    99    97   ar
    25   253   252    1
    26   133   135   ar
    27   133   132    1
    28   129   130    1
    29   129   128    1
    30   129   132    1
    31   130   136   am
    32    98    96   ar
    33    97    95   ar
    34   138   137    1
    35   252   255    1
    36   252   251    1
    37    89    88    2
    38   136   137    1
    39   255   256    1
    40    96    93   ar
    41   137   140    1
    42    95    93   ar
    43    95    94   ar
    44   256   258   ar
    45   256   257   ar
    46   258   260   ar
    47   257   259   ar
    48   260   261   ar
    49   259   261   ar
    50   261   262    1
    51    93    91   ar
    52    94    92   ar
    53   179   180    1
    54   123   122    2
    55    88    87    1
    56   185   187   ar
    57   185   184   ar
    58   181   182    2
    59   181   180    1
    60   122   121    1
    61   140   141    1
    62    91    92   ar
    63    91    90    1
    64    87    90    1
    65    87    86    1
    66   183   180    1
    67   183   184    1
    68   144   145    1
    69   187   188   ar
    70   142   141   ar
    71   184   186   ar
    72   127   125   ar
    73   145   146    1
    74   145   148    1
    75   141   143   ar
    76   147   146    2
    77   146   149   am
    78   121   124    1
    79   121   120    1
    80   125   124    1
    81   125   126   ar
    82   242   241    2
    83   188   186   ar
    84   188   190   ar
    85   186   189   ar
    86   243   244    1
    87   243   240    1
    88   244   246   ar
    89   244   245   ar
    90   149   150    1
    91   246   248   ar
    92   245   247   ar
    93   248   249   ar
    94   241   240    1
    95   190   192   ar
    96   247   249   ar
    97   151   152    2
    98   151   150    1
    99   249   250    1
   100   150   153    1
   101   240   239    1
   102   189   191   ar
   103   108   106   ar
   104   108   110   ar
   105   106   105   ar
   106   192   191   ar
   107   101   100    1
   108   101   104    1
   109   101   102    1
   110   234   233    2
   111   153   154    1
   112   110   109   ar
   113   103   102    2
   114   155   154   ar
   115   155   157   ar
   116   105   104    1
   117   105   107   ar
   118   154   156   ar
   119   157   159   ar
   120   156   158   ar
   121   102   111   am
   122   205   206    1
   123   159   158   ar
   124   159   160    1
   125   233   232    1
   126   208   207    2
   127   211   212    2
   128   211   210    1
   129   109   107   ar
   130    52    51   ar
   131    52    50   ar
   132   207   206    1
   133   207   209   am
   134   114   113    2
   135    51    49   ar
   136   235   232    1
   137   235   236    1
   138   231   232    1
   139   111   112    1
   140   210   209    1
   141   210   213    1
   142     7     6    1
   143   237   236    1
   144    50    48   ar
   145   113   112    1
   146   236   238    1
   147   223   222    2
   148   112   115    1
   149    49    46   ar
   150   118   117    2
   151   215   217   ar
   152   215   214   ar
   153   213   214    1
   154     6     8    1
   155     6     5    1
   156   222   221    1
   157    48    46   ar
   158    48    47   ar
   159     2     5    1
   160     2     1    1
   161     2     3    1
   162   217   219   ar
   163    46    44   ar
   164   214   216   ar
   165   117   119   am
   166   117   116    1
   167   115   116    1
   168   220   221    1
   169     3     4    2
   170   221   224    1
   171    85    84    1
   172    47    45   ar
   173   219   218   ar
   174   216   218   ar
   175    44    45   ar
   176    44    43    1
   177   224   225    1
   178    84    81    1
   179   227   225   ar
   180   227   229   ar
   181    39    40    1
   182    82    83    2
   183    82    81    1
   184    43    40    1
   185   225   226   ar
   186   229   230   ar
   187    81    80    1
   188    40    41    1
   189    66    64    1
   190    80    77   am
   191   226   228   ar
   192   230   228   ar
   193    41    42    2
   194   163   164    2
   195   163   162    1
   196    79    76    1
   197    77    78    2
   198    77    76    1
   199    64    65    1
   200    64    61    1
   201    67    65    1
   202    75    76    1
   203    60    61    1
   204    61    62    1
   205   162   161    1
   206   162   165    1
   207   170   171   ar
   208   170   168   ar
   209   171   169   ar
   210   168   166   ar
   211   169   167   ar
   212   166   167   ar
   213   166   165    1
   214    62    63    2
   215    74    73    1
   216    74    68    1
   217    15    14    1
   218    15    16    1
   219    73    72    1
   220    14    13    1
   221    58    57    1
   222    72    69    1
   223    26    25    1
   224    53    54    1
   225    68    69    1
   226    13    10    1
   227    37    38   ar
   228    37    35   ar
   229    57    54    1
   230    57    59    1
   231    69    70    1
   232    54    55    1
   233    38    36   ar
   234    23    24    1
   235    23    22    1
   236    35    33   ar
   237    25    24    2
   238    25    27    1
   239    21    22    1
   240    21    18    1
   241     9    10    1
   242    70    71    2
   243    10    11    1
   244    55    56    2
   245    36    34   ar
   246    18    17    1
   247    18    19    1
   248    33    34   ar
   249    33    32    1
   250    11    12    2
   251    32    29    1
   252    19    20    2
   253    28    29    1
   254    29    30    1
   255    30    31    2
