@<TRIPOS>MOLECULE
tmp/1o6tA02.pdb
 85 83 0 0 0
SMALL
GASTEIGER

@<TRIPOS>ATOM
      1  N        -17.7050  -12.0310   15.4360 N.3   333  PHE333     -0.1241
      2  CA       -18.4600  -10.8780   14.9740 C.3   333  PHE333      0.1605
      3  C        -18.0150  -10.5300   13.5580 C.2   333  PHE333      0.2264
      4  O        -16.8630  -10.1850   13.3240 O.2   333  PHE333     -0.2867
      5  CB       -18.2140   -9.6630   15.8530 C.3   333  PHE333      0.0534
      6  CG       -18.5260   -9.8750   17.3140 C.ar  333  PHE333     -0.0203
      7  CD1      -17.6070  -10.4650   18.1110 C.ar  333  PHE333     -0.0042
      8  CD2      -19.7160   -9.4690   17.8300 C.ar  333  PHE333     -0.0042
      9  CE1      -17.8420  -10.6500   19.4680 C.ar  333  PHE333     -0.0003
     10  CE2      -19.9700   -9.6600   19.2020 C.ar  333  PHE333     -0.0003
     11  CZ       -19.0300  -10.2570   19.9680 C.ar  333  PHE333     -0.0000
     12  N        -20.5080   -8.8060   11.2720 N.3   335  TYR335     -0.1227
     13  CA       -21.5690   -7.9950   10.7100 C.3   335  TYR335      0.1736
     14  C        -20.9550   -6.9620    9.7490 C.2   335  TYR335      0.2595
     15  O        -19.8270   -6.5430    9.9310 O.2   335  TYR335     -0.2718
     16  CB       -22.4230   -7.3690   11.7640 C.3   335  TYR335      0.0548
     17  CG       -21.7370   -6.5420   12.8300 C.ar  335  TYR335     -0.0200
     18  CD1      -21.4990   -5.1800   12.6580 C.ar  335  TYR335     -0.0009
     19  CD2      -21.3720   -7.1210   14.0480 C.ar  335  TYR335     -0.0009
     20  CE1      -20.9060   -4.4400   13.6470 C.ar  335  TYR335      0.0417
     21  CE2      -20.7960   -6.3730   15.0070 C.ar  335  TYR335      0.0417
     22  CZ       -20.5880   -5.0610   14.8360 C.ar  335  TYR335      0.1957
     23  OH       -20.0090   -4.3460   15.8560 O.3   335  TYR335     -0.2866
     24  N        -21.7160   -6.5570    8.7430 N.am  336  ASN336     -0.1974
     25  CA       -21.3060   -5.5880    7.7370 C.3   336  ASN336      0.1688
     26  C        -20.1290   -6.1260    6.9490 C.2   336  ASN336      0.2292
     27  O        -19.0430   -5.5690    6.9310 O.2   336  ASN336     -0.2864
     28  CB       -21.0610   -4.2350    8.3470 C.3   336  ASN336      0.1181
     29  CG       -22.3350   -3.5440    8.7780 C.2   336  ASN336      0.2629
     30  OD1      -22.8520   -3.7660    9.8620 O.2   336  ASN336     -0.2716
     31  ND2      -22.8480   -2.6530    7.8770 N.am  336  ASN336     -0.0877
     32  N        -21.3950  -16.5280   20.7710 N.3   353  TRP353     -0.1241
     33  CA       -21.9070  -15.2620   20.2540 C.3   353  TRP353      0.1605
     34  C        -21.5540  -15.2270   18.7930 C.2   353  TRP353      0.2264
     35  O        -20.3830  -15.2860   18.4200 O.2   353  TRP353     -0.2867
     36  CB       -21.3180  -14.0840   20.9870 C.3   353  TRP353      0.0550
     37  CG       -22.0070  -12.8040   20.7950 C.ar  353  TRP353      0.0003
     38  CD1      -22.7800  -12.3730   19.7270 C.ar  353  TRP353      0.0946
     39  CD2      -21.9870  -11.7540   21.7100 C.ar  353  TRP353      0.0152
     40  NE1      -23.2510  -11.0970   19.9780 N.ar  353  TRP353     -0.2442
     41  CE2      -22.7640  -10.7000   21.1890 C.ar  353  TRP353      0.0810
     42  CE3      -21.3910  -11.5940   22.9630 C.ar  353  TRP353      0.0012
     43  CZ2      -22.9420   -9.5040   21.8690 C.ar  353  TRP353      0.0191
     44  CZ3      -21.5680  -10.4130   23.6290 C.ar  353  TRP353      0.0001
     45  CH2      -22.3430   -9.3790   23.0840 C.ar  353  TRP353      0.0015
     46  N        -22.4270  -12.9930   15.4680 N.3   355  SER355     -0.1217
     47  CA       -23.0130  -11.7090   15.0620 C.3   355  SER355      0.1889
     48  C        -22.7280  -11.5140   13.6240 C.2   355  SER355      0.2288
     49  O        -21.5750  -11.3100   13.2530 O.2   355  SER355     -0.2866
     50  CB       -22.3990  -10.5700   15.8730 C.3   355  SER355      0.2089
     51  OG       -23.1190   -9.3990   15.7040 O.3   355  SER355     -0.2183
     52  N        -25.1590   -9.7740   11.2380 N.3   357  GLY357     -0.1210
     53  CA       -26.0460   -8.8290   10.5720 C.3   357  GLY357      0.1956
     54  C        -25.3890   -8.1580    9.3860 C.2   357  GLY357      0.2611
     55  O        -24.1490   -8.1100    9.2420 O.2   357  GLY357     -0.2717
     56  N        -26.2090   -7.6280    8.4900 N.am  358  HIS358     -0.1975
     57  CA       -25.6980   -6.7860    7.3900 C.3   358  HIS358      0.1656
     58  C        -24.6550   -7.5860    6.5650 C.2   358  HIS358      0.2291
     59  O        -23.5940   -7.0640    6.1910 O.2   358  HIS358     -0.2864
     60  CB       -25.0930   -5.4870    7.9560 C.3   358  HIS358      0.0771
     61  CG       -26.0760   -4.5050    8.4220 C.ar  358  HIS358      0.0820
     62  ND1      -26.6490   -4.5640    9.6580 N.ar  358  HIS358     -0.2267
     63  CD2      -26.5440   -3.3750    7.8340 C.ar  358  HIS358      0.1154
     64  CE1      -27.4790   -3.5330    9.7970 C.ar  358  HIS358      0.1986
     65  NE2      -27.4200   -2.8030    8.7130 N.ar  358  HIS358     -0.2212
     66  N        -26.9630  -12.5360   16.0480 N.3   377  GLY377     -0.1225
     67  CA       -27.3680  -11.4120   15.2660 C.3   377  GLY377      0.1811
     68  C        -27.4090  -11.6850   13.8040 C.2   377  GLY377      0.2280
     69  O        -26.4660  -12.1140   13.2110 O.2   377  GLY377     -0.2866
     70  N        -29.7270   -9.5470   11.6910 N.3   379  ASN379     -0.1225
     71  CA       -30.5690   -8.4720   11.1280 C.3   379  ASN379      0.1785
     72  C        -30.0070   -7.9460    9.7650 C.2   379  ASN379      0.2597
     73  O        -28.7860   -7.8550    9.5440 O.2   379  ASN379     -0.2718
     74  CB       -30.5510   -7.2100   11.9360 C.3   379  ASN379      0.1169
     75  CG       -31.0570   -7.3000   13.3250 C.2   379  ASN379      0.2627
     76  OD1      -30.8460   -6.3340   14.1140 O.2   379  ASN379     -0.2716
     77  ND2      -31.7570   -8.3190   13.6550 N.am  379  ASN379     -0.0877
     78  N        -30.9050   -7.5270    8.8670 N.am  380  ASP380     -0.1974
     79  CA       -30.5850   -6.6170    7.7910 C.3   380  ASP380      0.1709
     80  C        -29.5710   -7.1350    6.7880 C.2   380  ASP380      0.2293
     81  O        -28.6920   -6.4280    6.2900 O.2   380  ASP380     -0.2864
     82  CB       -30.1140   -5.2800    8.3920 C.3   380  ASP380      0.1436
     83  CG       -31.1250   -4.6210    9.3110 C.2   380  ASP380      0.3671
     84  OD1      -32.2850   -4.5680    8.9650 O.co2 380  ASP380     -0.2456
     85  OD2      -30.8070   -4.1440   10.4330 O.co2 380  ASP380     -0.2456
@<TRIPOS>BOND
     1    59    58    2
     2    81    80    2
     3    58    57    1
     4    80    79    1
     5    27    26    2
     6    26    25    1
     7    57    60    1
     8    57    56    1
     9    25    28    1
    10    25    24    1
    11    79    82    1
    12    79    78    1
    13    63    61   ar
    14    63    65   ar
    15    31    29   am
    16    60    61    1
    17    28    29    1
    18    82    83    1
    19    61    62   ar
    20    56    54   am
    21    65    64   ar
    22    24    14   am
    23    29    30    2
    24    78    72   am
    25    84    83   ar
    26    55    54    2
    27    83    85   ar
    28    54    53    1
    29    73    72    2
    30    62    64   ar
    31    14    15    2
    32    14    13    1
    33    72    71    1
    34    53    52    1
    35    13    12    1
    36    13    16    1
    37    71    70    1
    38    71    74    1
    39    16    17    1
    40    74    75    1
    41    18    17   ar
    42    18    20   ar
    43    17    19   ar
    44    69    68    2
    45    49    48    2
    46     4     3    2
    47    75    77   am
    48    75    76    2
    49     3     2    1
    50    48    47    1
    51    20    22   ar
    52    68    67    1
    53    19    21   ar
    54    22    21   ar
    55    22    23    1
    56     2     1    1
    57     2     5    1
    58    47    46    1
    59    47    50    1
    60    67    66    1
    61    51    50    1
    62     5     6    1
    63     6     8   ar
    64     6     7   ar
    65     8    10   ar
    66     7     9   ar
    67    35    34    2
    68    34    33    1
    69    10    11   ar
    70     9    11   ar
    71    38    40   ar
    72    38    37   ar
    73    40    41   ar
    74    33    32    1
    75    33    36    1
    76    37    36    1
    77    37    39   ar
    78    41    39   ar
    79    41    43   ar
    80    39    42   ar
    81    43    45   ar
    82    42    44   ar
    83    45    44   ar
