@<TRIPOS>MOLECULE
tmp/1o6uC00.pdb
 252 236 0 0 0
SMALL
GASTEIGER

@<TRIPOS>ATOM
      1  N        -21.4600    7.8720   58.1000 N.3    96  TRP96      -0.1241
      2  CA       -22.0280    6.7900   58.8950 C.3    96  TRP96       0.1605
      3  C        -21.2670    5.4930   58.6250 C.2    96  TRP96       0.2264
      4  O        -20.9730    5.1600   57.4710 O.2    96  TRP96      -0.2867
      5  CB       -23.5140    6.6100   58.5470 C.3    96  TRP96       0.0550
      6  CG       -24.1340    5.3960   59.1750 C.ar   96  TRP96       0.0003
      7  CD1      -24.1710    4.1270   58.6580 C.ar   96  TRP96       0.0946
      8  CD2      -24.7280    5.3160   60.4760 C.ar   96  TRP96       0.0152
      9  NE1      -24.7470    3.2620   59.5640 N.ar   96  TRP96      -0.2442
     10  CE2      -25.0970    3.9670   60.6870 C.ar   96  TRP96       0.0810
     11  CE3      -24.9830    6.2540   61.4850 C.ar   96  TRP96       0.0012
     12  CZ2      -25.7050    3.5330   61.8700 C.ar   96  TRP96       0.0191
     13  CZ3      -25.5890    5.8220   62.6620 C.ar   96  TRP96       0.0001
     14  CH2      -25.9420    4.4720   62.8430 C.ar   96  TRP96       0.0015
     15  N        -21.0790    1.3390   58.9900 N.3    98  ASP98      -0.1239
     16  CA       -21.8420    0.1030   59.1350 C.3    98  ASP98       0.1674
     17  C        -20.7840   -0.9690   59.3550 C.2    98  ASP98       0.2266
     18  O        -19.8300   -1.0720   58.5770 O.2    98  ASP98      -0.2867
     19  CB       -22.6380   -0.2270   57.8650 C.3    98  ASP98       0.1410
     20  CG       -24.0210    0.4080   57.8510 C.2    98  ASP98       0.3668
     21  OD1      -24.7830    0.2120   58.8220 O.co2  98  ASP98      -0.2456
     22  OD2      -24.3480    1.0940   56.8590 O.co2  98  ASP98      -0.2456
     23  N        -20.7340   -4.8230   59.5860 N.3   100  ILE100     -0.1245
     24  CA       -21.5140   -6.0450   59.3940 C.3   100  ILE100      0.1561
     25  C        -20.9840   -7.3130   60.0490 C.2   100  ILE100      0.2260
     26  O        -21.7380   -8.0580   60.6670 O.2   100  ILE100     -0.2867
     27  CB       -21.6970   -6.3330   57.8890 C.3   100  ILE100      0.0252
     28  CG1      -22.2440   -5.0860   57.1930 C.3   100  ILE100      0.0019
     29  CG2      -22.6360   -7.5190   57.6900 C.3   100  ILE100      0.0019
     30  CD1      -23.5370   -4.5670   57.7880 C.3   100  ILE100      0.0001
     31  N        -33.4750    1.7320   63.2800 N.3   121  LYS121     -0.1245
     32  CA       -32.8670    2.1270   62.0100 C.3   121  LYS121      0.1561
     33  C        -33.4820    3.4330   61.5200 C.2   121  LYS121      0.2260
     34  O        -32.7650    4.3410   61.0890 O.2   121  LYS121     -0.2867
     35  CB       -33.0740    1.0380   60.9530 C.3   121  LYS121      0.0271
     36  CG       -32.4680   -0.3110   61.3170 C.3   121  LYS121      0.0035
     37  CD       -30.9620   -0.2110   61.5350 C.3   121  LYS121      0.0206
     38  CE       -30.2220    0.0980   60.2400 C.3   121  LYS121      0.1093
     39  NZ       -28.7540    0.1520   60.4520 N.3   121  LYS121     -0.1314
     40  N        -31.6970    7.1750   60.7050 N.3   124  CYS124     -0.1235
     41  CA       -31.8810    7.9730   59.5010 C.3   124  CYS124      0.1677
     42  C        -32.3050    9.4000   59.8560 C.2   124  CYS124      0.2270
     43  O        -31.8160   10.3690   59.2670 O.2   124  CYS124     -0.2867
     44  CB       -32.9230    7.3310   58.5830 C.3   124  CYS124      0.0956
     45  SG       -32.3750    5.7880   57.8160 S.3   124  CYS124     -0.0801
     46  N        -29.3610   11.2770   61.1630 N.3   127  LEU127     -0.1245
     47  CA       -28.4440   11.6350   60.0860 C.3   127  LEU127      0.1561
     48  C        -28.9570   12.8750   59.3580 C.2   127  LEU127      0.2260
     49  O        -28.1930   13.7940   59.0710 O.2   127  LEU127     -0.2867
     50  CB       -28.2960   10.4640   59.1100 C.3   127  LEU127      0.0270
     51  CG       -27.3620    9.3540   59.6100 C.3   127  LEU127      0.0019
     52  CD1      -27.4730    8.1220   58.7210 C.3   127  LEU127      0.0001
     53  CD2      -25.9280    9.8790   59.6230 C.3   127  LEU127      0.0001
     54  N        -25.3840   11.9890   52.7750 N.3   145  ILE145     -0.1245
     55  CA       -24.4900   11.3260   53.7070 C.3   145  ILE145      0.1561
     56  C        -23.5510   10.3370   53.0250 C.2   145  ILE145      0.2260
     57  O        -23.9000    9.7200   52.0200 O.2   145  ILE145     -0.2867
     58  CB       -25.2960   10.5480   54.7690 C.3   145  ILE145      0.0252
     59  CG1      -26.1530    9.4850   54.0750 C.3   145  ILE145      0.0019
     60  CG2      -26.1720   11.5110   55.5770 C.3   145  ILE145      0.0019
     61  CD1      -26.9100    8.5590   55.0210 C.3   145  ILE145      0.0001
     62  N        -21.3490    6.8770   53.4460 N.3   147  ILE147     -0.1245
     63  CA       -21.3470    5.6710   54.2510 C.3   147  ILE147      0.1561
     64  C        -20.1140    4.8090   54.0220 C.2   147  ILE147      0.2260
     65  O        -19.6880    4.6070   52.8840 O.2   147  ILE147     -0.2867
     66  CB       -22.5870    4.8040   53.9470 C.3   147  ILE147      0.0252
     67  CG1      -23.8560    5.5680   54.3250 C.3   147  ILE147      0.0019
     68  CG2      -22.4900    3.4640   54.6850 C.3   147  ILE147      0.0019
     69  CD1      -25.1160    4.7970   54.0740 C.3   147  ILE147      0.0001
     70  N        -19.0680    1.1340   54.6180 N.3   149  TYR149     -0.1241
     71  CA       -19.6560   -0.1720   54.8640 C.3   149  TYR149      0.1605
     72  C        -18.5650   -1.2330   55.0340 C.2   149  TYR149      0.2264
     73  O        -18.0140   -1.7510   54.0610 O.2   149  TYR149     -0.2867
     74  CB       -20.5690   -0.5080   53.6790 C.3   149  TYR149      0.0534
     75  CG       -21.7250   -1.4210   53.9950 C.ar  149  TYR149     -0.0201
     76  CD1      -21.5740   -2.8030   53.9580 C.ar  149  TYR149     -0.0009
     77  CD2      -22.9780   -0.9010   54.3180 C.ar  149  TYR149     -0.0009
     78  CE1      -22.6430   -3.6450   54.2310 C.ar  149  TYR149      0.0417
     79  CE2      -24.0510   -1.7340   54.5960 C.ar  149  TYR149      0.0417
     80  CZ       -23.8760   -3.1050   54.5490 C.ar  149  TYR149      0.1957
     81  OH       -24.9380   -3.9420   54.8070 O.3   149  TYR149     -0.2866
     82  N        -17.3320   -4.6810   55.5050 N.3   151  CYS151     -0.1235
     83  CA       -17.7580   -6.0580   55.3060 C.3   151  CYS151      0.1677
     84  C        -16.8040   -7.1200   55.8270 C.2   151  CYS151      0.2270
     85  O        -16.9920   -8.3090   55.5640 O.2   151  CYS151     -0.2867
     86  CB       -18.0380   -6.3150   53.8280 C.3   151  CYS151      0.0956
     87  SG       -19.6200   -5.6490   53.3070 S.3   151  CYS151     -0.0801
     88  N        -17.8850  -10.6960   57.0270 N.3   154  LEU154     -0.1245
     89  CA       -19.1730  -11.0520   56.4310 C.3   154  LEU154      0.1561
     90  C        -19.0830  -12.5340   56.1140 C.2   154  LEU154      0.2260
     91  O        -18.1280  -12.9760   55.4820 O.2   154  LEU154     -0.2867
     92  CB       -19.4120  -10.2620   55.1390 C.3   154  LEU154      0.0270
     93  CG       -20.5910  -10.7060   54.2600 C.3   154  LEU154      0.0019
     94  CD1      -21.9100  -10.4670   54.9740 C.3   154  LEU154      0.0001
     95  CD2      -20.5520   -9.9430   52.9440 C.3   154  LEU154      0.0001
     96  N        -24.5370  -14.5810   58.1270 N.3   158  HIS158     -0.1226
     97  CA       -25.2620  -13.3580   57.8060 C.3   158  HIS158      0.1752
     98  C        -26.3320  -13.5930   56.7450 C.2   158  HIS158      0.2595
     99  O        -27.1910  -12.7360   56.5270 O.2   158  HIS158     -0.2718
    100  CB       -24.2860  -12.2850   57.3180 C.3   158  HIS158      0.0759
    101  CG       -23.2640  -11.8940   58.3390 C.ar  158  HIS158      0.0818
    102  ND1      -23.5830  -11.1850   59.4780 N.ar  158  HIS158     -0.2268
    103  CD2      -21.9390  -12.1550   58.4180 C.ar  158  HIS158      0.1154
    104  CE1      -22.4990  -11.0310   60.2170 C.ar  158  HIS158      0.1986
    105  NE2      -21.4880  -11.6100   59.5960 N.ar  158  HIS158     -0.2212
    106  N        -26.2860  -14.7490   56.0880 N.am  159  LEU159     -0.1980
    107  CA       -27.2590  -15.0600   55.0380 C.3   159  LEU159      0.1596
    108  C        -28.5330  -15.7050   55.5720 C.2   159  LEU159      0.2287
    109  O        -29.4560  -15.9770   54.8100 O.2   159  LEU159     -0.2864
    110  CB       -26.6310  -15.9710   53.9780 C.3   159  LEU159      0.0297
    111  CG       -25.3370  -15.4870   53.3210 C.3   159  LEU159      0.0022
    112  CD1      -24.9290  -16.4550   52.2180 C.3   159  LEU159      0.0001
    113  CD2      -25.5360  -14.0900   52.7500 C.3   159  LEU159      0.0001
    114  N        -31.8790  -11.5880   56.4490 N.3   164  VAL164     -0.1245
    115  CA       -31.8080  -10.9050   55.1670 C.3   164  VAL164      0.1561
    116  C        -33.1400  -10.2140   54.8660 C.2   164  VAL164      0.2260
    117  O        -33.1700   -9.0930   54.3580 O.2   164  VAL164     -0.2867
    118  CB       -31.4750  -11.8870   54.0330 C.3   164  VAL164      0.0252
    119  CG1      -31.4260  -11.1510   52.6940 C.3   164  VAL164      0.0019
    120  CG2      -30.1390  -12.5520   54.3210 C.3   164  VAL164      0.0019
    121  N        -33.5470   -7.1560   56.9820 N.3   167  TYR167     -0.1241
    122  CA       -32.6900   -6.1130   56.4330 C.3   167  TYR167      0.1605
    123  C        -33.3530   -5.5250   55.1880 C.2   167  TYR167      0.2264
    124  O        -33.3110   -4.3140   54.9640 O.2   167  TYR167     -0.2867
    125  CB       -31.3090   -6.6860   56.0920 C.3   167  TYR167      0.0534
    126  CG       -30.2700   -5.6330   55.7760 C.ar  167  TYR167     -0.0201
    127  CD1      -30.1710   -4.4750   56.5430 C.ar  167  TYR167     -0.0009
    128  CD2      -29.3590   -5.8120   54.7370 C.ar  167  TYR167     -0.0009
    129  CE1      -29.1890   -3.5200   56.2840 C.ar  167  TYR167      0.0417
    130  CE2      -28.3730   -4.8670   54.4710 C.ar  167  TYR167      0.0417
    131  CZ       -28.2940   -3.7230   55.2500 C.ar  167  TYR167      0.1957
    132  OH       -27.3110   -2.7910   55.0010 O.3   167  TYR167     -0.2866
    133  N        -35.7980   -2.8680   56.0420 N.3   170  PHE170     -0.1227
    134  CA       -35.1660   -1.6040   56.3840 C.3   170  PHE170      0.1736
    135  C        -34.7900   -0.8870   55.0880 C.2   170  PHE170      0.2595
    136  O        -35.0680    0.3000   54.9110 O.2   170  PHE170     -0.2718
    137  CB       -33.8940   -1.8310   57.2110 C.3   170  PHE170      0.0547
    138  CG       -32.9010   -0.7030   57.1000 C.ar  170  PHE170     -0.0202
    139  CD1      -33.2370    0.5800   57.5160 C.ar  170  PHE170     -0.0042
    140  CD2      -31.6550   -0.9130   56.5220 C.ar  170  PHE170     -0.0042
    141  CE1      -32.3440    1.6430   57.3540 C.ar  170  PHE170     -0.0003
    142  CE2      -30.7540    0.1390   56.3530 C.ar  170  PHE170     -0.0003
    143  CZ       -31.1000    1.4200   56.7690 C.ar  170  PHE170     -0.0000
    144  N        -34.1510   -1.6230   54.1830 N.am  171  LEU171     -0.1980
    145  CA       -33.7180   -1.0510   52.9170 C.3   171  LEU171      0.1596
    146  C        -34.8680   -0.4330   52.1350 C.2   171  LEU171      0.2287
    147  O        -34.7410    0.6770   51.6150 O.2   171  LEU171     -0.2864
    148  CB       -33.0090   -2.1110   52.0730 C.3   171  LEU171      0.0297
    149  CG       -31.6880   -2.6330   52.6530 C.3   171  LEU171      0.0022
    150  CD1      -31.0890   -3.7040   51.7290 C.3   171  LEU171      0.0001
    151  CD2      -30.7210   -1.4760   52.8100 C.3   171  LEU171      0.0001
    152  N        -35.9140    2.7000   53.7630 N.3   173  PHE173     -0.1241
    153  CA       -34.9520    3.7490   53.4410 C.3   173  PHE173      0.1605
    154  C        -35.1740    4.3430   52.0530 C.2   173  PHE173      0.2264
    155  O        -35.1870    5.5640   51.8810 O.2   173  PHE173     -0.2867
    156  CB       -33.5240    3.2100   53.5280 C.3   173  PHE173      0.0534
    157  CG       -32.4820    4.2260   53.1650 C.ar  173  PHE173     -0.0203
    158  CD1      -32.0950    5.2030   54.0790 C.ar  173  PHE173     -0.0042
    159  CD2      -31.9120    4.2310   51.8970 C.ar  173  PHE173     -0.0042
    160  CE1      -31.1550    6.1700   53.7350 C.ar  173  PHE173     -0.0003
    161  CE2      -30.9730    5.1940   51.5420 C.ar  173  PHE173     -0.0003
    162  CZ       -30.5940    6.1650   52.4620 C.ar  173  PHE173     -0.0000
    163  N        -28.4790    9.3750   50.0400 N.3   181  LEU181     -0.1245
    164  CA       -27.1830    8.7160   50.0210 C.3   181  LEU181      0.1561
    165  C        -26.2930    9.4130   49.0030 C.2   181  LEU181      0.2260
    166  O        -26.6980    9.6340   47.8670 O.2   181  LEU181     -0.2867
    167  CB       -27.3350    7.2390   49.6460 C.3   181  LEU181      0.0270
    168  CG       -26.0300    6.4490   49.5300 C.3   181  LEU181      0.0019
    169  CD1      -25.3270    6.4120   50.8850 C.3   181  LEU181      0.0001
    170  CD2      -26.3280    5.0340   49.0420 C.3   181  LEU181      0.0001
    171  N        -21.3780    5.2410   49.0070 N.3   184  LEU184     -0.1245
    172  CA       -21.2100    4.1790   49.9690 C.3   184  LEU184      0.1561
    173  C        -19.9740    3.3930   49.5760 C.2   184  LEU184      0.2260
    174  O        -19.9150    2.8280   48.4870 O.2   184  LEU184     -0.2867
    175  CB       -22.4470    3.2810   49.9630 C.3   184  LEU184      0.0270
    176  CG       -22.5000    2.1680   51.0070 C.3   184  LEU184      0.0019
    177  CD1      -23.9430    1.8650   51.3310 C.3   184  LEU184      0.0001
    178  CD2      -21.7710    0.9340   50.4990 C.3   184  LEU184      0.0001
    179  N        -17.6940    0.2200   50.1330 N.3   186  VAL186     -0.1245
    180  CA       -17.6670   -1.1120   50.7160 C.3   186  VAL186      0.1561
    181  C        -16.1840   -1.4460   50.9030 C.2   186  VAL186      0.2260
    182  O        -15.4110   -1.4560   49.9420 O.2   186  VAL186     -0.2867
    183  CB       -18.3120   -2.1630   49.7940 C.3   186  VAL186      0.0252
    184  CG1      -18.1960   -3.5350   50.4310 C.3   186  VAL186      0.0019
    185  CG2      -19.7730   -1.8160   49.5480 C.3   186  VAL186      0.0019
    186  N        -18.9730  -11.5930   49.2220 N.3   193  PHE193     -0.1241
    187  CA       -19.6670  -10.3560   48.8790 C.3   193  PHE193      0.1605
    188  C        -20.6540  -10.4550   47.7030 C.2   193  PHE193      0.2264
    189  O        -21.8200  -10.0880   47.8430 O.2   193  PHE193     -0.2867
    190  CB       -18.6680   -9.2280   48.6160 C.3   193  PHE193      0.0534
    191  CG       -19.3260   -7.9030   48.3470 C.ar  193  PHE193     -0.0203
    192  CD1      -20.0010   -7.2310   49.3610 C.ar  193  PHE193     -0.0042
    193  CD2      -19.3280   -7.3570   47.0670 C.ar  193  PHE193     -0.0042
    194  CE1      -20.6720   -6.0370   49.1020 C.ar  193  PHE193     -0.0003
    195  CE2      -19.9980   -6.1620   46.8000 C.ar  193  PHE193     -0.0003
    196  CZ       -20.6690   -5.5050   47.8170 C.ar  193  PHE193     -0.0000
    197  N        -23.8280  -12.1460   48.7850 N.3   196  ALA196     -0.1231
    198  CA       -24.5260  -11.3540   49.8000 C.3   196  ALA196      0.1694
    199  C        -25.1770  -10.1250   49.1670 C.2   196  ALA196      0.2592
    200  O        -26.3220   -9.7820   49.4740 O.2   196  ALA196     -0.2718
    201  CB       -23.5440  -10.9220   50.8950 C.3   196  ALA196      0.0304
    202  N        -24.4440   -9.4640   48.2790 N.am  197  TYR197     -0.1976
    203  CA       -24.9600   -8.2790   47.6110 C.3   197  TYR197      0.1639
    204  C        -26.1630   -8.6250   46.7520 C.2   197  TYR197      0.2290
    205  O        -27.1490   -7.8870   46.7210 O.2   197  TYR197     -0.2864
    206  CB       -23.8820   -7.6390   46.7320 C.3   197  TYR197      0.0560
    207  CG       -24.3840   -6.4300   45.9750 C.ar  197  TYR197     -0.0198
    208  CD1      -24.7400   -5.2610   46.6510 C.ar  197  TYR197     -0.0009
    209  CD2      -24.5620   -6.4710   44.5880 C.ar  197  TYR197     -0.0009
    210  CE1      -25.2680   -4.1620   45.9700 C.ar  197  TYR197      0.0417
    211  CE2      -25.0900   -5.3760   43.8970 C.ar  197  TYR197      0.0417
    212  CZ       -25.4400   -4.2250   44.5980 C.ar  197  TYR197      0.1957
    213  OH       -25.9610   -3.1420   43.9320 O.3   197  TYR197     -0.2866
    214  N        -28.3420  -10.7230   47.2540 N.3   199  LEU199     -0.1231
    215  CA       -29.5160  -10.9430   48.0950 C.3   199  LEU199      0.1693
    216  C        -30.2950   -9.6630   48.4070 C.2   199  LEU199      0.2591
    217  O        -31.5190   -9.6890   48.5300 O.2   199  LEU199     -0.2718
    218  CB       -29.1090  -11.6130   49.4160 C.3   199  LEU199      0.0284
    219  CG       -28.7980  -13.1130   49.3670 C.3   199  LEU199      0.0019
    220  CD1      -28.2290  -13.5660   50.6940 C.3   199  LEU199      0.0001
    221  CD2      -30.0690  -13.8850   49.0440 C.3   199  LEU199      0.0001
    222  N        -29.5940   -8.5450   48.5440 N.am  200  ILE200     -0.1980
    223  CA       -30.2710   -7.2910   48.8630 C.3   200  ILE200      0.1595
    224  C        -30.4170   -6.3440   47.6750 C.2   200  ILE200      0.2287
    225  O        -31.1340   -5.3530   47.7510 O.2   200  ILE200     -0.2864
    226  CB       -29.5640   -6.5640   50.0410 C.3   200  ILE200      0.0276
    227  CG1      -28.0850   -6.3430   49.7310 C.3   200  ILE200      0.0022
    228  CG2      -29.6980   -7.3920   51.3140 C.3   200  ILE200      0.0022
    229  CD1      -27.8220   -5.2380   48.7420 C.3   200  ILE200      0.0001
    230  N        -32.7810   -2.3210   46.5030 N.3   204  LEU204     -0.1245
    231  CA       -32.1210   -1.0420   46.2530 C.3   204  LEU204      0.1561
    232  C        -32.5240   -0.3970   44.9350 C.2   204  LEU204      0.2260
    233  O        -32.6840   -1.0760   43.9210 O.2   204  LEU204     -0.2867
    234  CB       -30.6000   -1.2310   46.2560 C.3   204  LEU204      0.0270
    235  CG       -29.9710   -1.9820   47.4320 C.3   204  LEU204      0.0019
    236  CD1      -28.4840   -2.1680   47.1720 C.3   204  LEU204      0.0001
    237  CD2      -30.1970   -1.2150   48.7260 C.3   204  LEU204      0.0001
    238  N        -29.2790    4.2260   44.2590 N.3   208  THR208     -0.1218
    239  CA       -28.4360    3.7350   45.3350 C.3   208  THR208      0.1862
    240  C        -27.3530    2.8070   44.7850 C.2   208  THR208      0.2287
    241  O        -26.1920    2.8990   45.1780 O.2   208  THR208     -0.2866
    242  CB       -29.2660    2.9770   46.3890 C.3   208  THR208      0.1770
    243  OG1      -30.1980    3.8780   47.0000 O.3   208  THR208     -0.2211
    244  CG2      -28.3590    2.3880   47.4690 C.3   208  THR208      0.0375
    245  N        -22.7920    2.8850   45.0600 N.3   212  ILE212     -0.1245
    246  CA       -22.0050    1.8840   45.7700 C.3   212  ILE212      0.1561
    247  C        -20.6620    1.6800   45.0770 C.2   212  ILE212      0.2260
    248  O        -20.6080    1.3650   43.8870 O.2   212  ILE212     -0.2867
    249  CB       -22.7330    0.5210   45.8200 C.3   212  ILE212      0.0252
    250  CG1      -23.9880    0.6330   46.6860 C.3   212  ILE212      0.0019
    251  CG2      -21.8020   -0.5540   46.3710 C.3   212  ILE212      0.0019
    252  CD1      -24.8420   -0.6050   46.6640 C.3   212  ILE212      0.0001
@<TRIPOS>BOND
     1   248   247    2
     2   211   209   ar
     3   211   212   ar
     4   233   232    2
     5   213   212    1
     6   238   239    1
     7   209   207   ar
     8   212   210   ar
     9   240   241    2
    10   240   239    1
    11   232   231    1
    12   245   246    1
    13   247   246    1
    14   239   242    1
    15   246   249    1
    16   249   251    1
    17   249   250    1
    18   210   208   ar
    19   207   208   ar
    20   207   206    1
    21   231   234    1
    22   231   230    1
    23   234   235    1
    24   242   243    1
    25   242   244    1
    26   252   250    1
    27   205   204    2
    28   206   203    1
    29   204   203    1
    30   195   193   ar
    31   195   196   ar
    32   193   191   ar
    33   236   235    1
    34   214   215    1
    35   235   237    1
    36   203   202    1
    37   224   225    2
    38   224   223    1
    39   188   189    2
    40   188   187    1
    41   196   194   ar
    42   166   165    2
    43   215   216    1
    44   215   218    1
    45   202   199   am
    46   191   190    1
    47   191   192   ar
    48   216   217    2
    49   216   222   am
    50   174   173    2
    51   222   223    1
    52   190   187    1
    53   229   227    1
    54   197   198    1
    55   223   226    1
    56   187   186    1
    57   165   164    1
    58   171   172    1
    59   170   168    1
    60   221   219    1
    61   194   192   ar
    62   199   200    2
    63   199   198    1
    64   219   218    1
    65   219   220    1
    66   168   167    1
    67   168   169    1
    68   185   183    1
    69   173   172    1
    70   167   164    1
    71   227   226    1
    72   183   184    1
    73   183   180    1
    74   198   201    1
    75   182   181    2
    76   175   172    1
    77   175   176    1
    78   164   163    1
    79   226   228    1
    80   179   180    1
    81   178   176    1
    82   180   181    1
    83   176   177    1
    84   161   159   ar
    85   161   162   ar
    86   147   146    2
    87   150   149    1
    88   155   154    2
    89   159   157   ar
    90    57    56    2
    91   154   153    1
    92   148   149    1
    93   148   145    1
    94   146   145    1
    95   112   111    1
    96   162   160   ar
    97   149   151    1
    98   119   118    1
    99   113   111    1
   100    54    55    1
   101    65    64    2
   102   145   144    1
   103    95    93    1
   104    56    55    1
   105   157   156    1
   106   157   158   ar
   107    87    86    1
   108   111   110    1
   109   153   156    1
   110   153   152    1
   111    62    63    1
   112    74    75    1
   113    74    71    1
   114    55    58    1
   115   160   158   ar
   116    86    83    1
   117    66    63    1
   118    66    67    1
   119    66    68    1
   120    76    75   ar
   121    76    78   ar
   122   110   107    1
   123    75    77   ar
   124    64    63    1
   125   118   120    1
   126   118   115    1
   127    73    72    2
   128    69    67    1
   129    59    58    1
   130    59    61    1
   131   144   135   am
   132    78    80   ar
   133    93    94    1
   134    93    92    1
   135    77    79   ar
   136   117   116    2
   137   130   128   ar
   138   130   131   ar
   139    80    79   ar
   140    80    81    1
   141    70    71    1
   142   128   126   ar
   143    58    60    1
   144   109   108    2
   145    71    72    1
   146   116   115    1
   147   136   135    2
   148   124   123    2
   149   132   131    1
   150   107   108    1
   151   107   106    1
   152   135   134    1
   153    92    89    1
   154   115   114    1
   155   123   122    1
   156   131   129   ar
   157    83    82    1
   158    83    84    1
   159    91    90    2
   160    85    84    2
   161   126   125    1
   162   126   127   ar
   163   133   134    1
   164   106    98   am
   165   125   122    1
   166    90    89    1
   167   129   127   ar
   168   142   140   ar
   169   142   143   ar
   170   134   137    1
   171    89    88    1
   172   122   121    1
   173   140   138   ar
   174    99    98    2
   175    98    97    1
   176   143   141   ar
   177    22    20   ar
   178   138   137    1
   179   138   139   ar
   180    28    30    1
   181    28    27    1
   182   100    97    1
   183   100   101    1
   184   141   139   ar
   185     4     3    2
   186    29    27    1
   187    97    96    1
   188    45    44    1
   189    20    19    1
   190    20    21   ar
   191    19    16    1
   192    27    24    1
   193     1     2    1
   194   101   103   ar
   195   101   102   ar
   196   103   105   ar
   197     5     2    1
   198     5     6    1
   199    18    17    2
   200    44    41    1
   201     3     2    1
   202     7     6   ar
   203     7     9   ar
   204    52    51    1
   205    15    16    1
   206    49    48    2
   207    50    51    1
   208    50    47    1
   209    16    17    1
   210     6     8   ar
   211    43    42    2
   212    48    47    1
   213    24    23    1
   214    24    25    1
   215   102   104   ar
   216    41    42    1
   217    41    40    1
   218     9    10   ar
   219   105   104   ar
   220    51    53    1
   221    25    26    2
   222    47    46    1
   223    38    39    1
   224    38    37    1
   225     8    10   ar
   226     8    11   ar
   227    10    12   ar
   228    35    36    1
   229    35    32    1
   230    34    33    2
   231    36    37    1
   232    11    13   ar
   233    33    32    1
   234    12    14   ar
   235    32    31    1
   236    13    14   ar
