@<TRIPOS>MOLECULE
tmp/1o6yA00.pdb
 179 168 0 0 0
SMALL
GASTEIGER

@<TRIPOS>ATOM
      1  N         79.7030   77.9280   33.0860 N.3    15  LEU15      -0.1231
      2  CA        81.1590   77.8940   32.8740 C.3    15  LEU15       0.1693
      3  C         81.6650   79.0230   31.9550 C.2    15  LEU15       0.2593
      4  O         82.7260   79.6050   32.1910 O.2    15  LEU15      -0.2718
      5  CB        81.6000   76.5160   32.3490 C.3    15  LEU15       0.0284
      6  CG        81.3450   75.3250   33.2850 C.3    15  LEU15       0.0019
      7  CD1       81.5880   73.9690   32.5680 C.3    15  LEU15       0.0001
      8  CD2       82.1730   75.4140   34.5320 C.3    15  LEU15       0.0001
      9  N         80.8970   79.3250   30.9110 N.am   16  GLY16      -0.1942
     10  CA        81.2010   80.4030   29.9950 C.3    16  GLY16       0.2014
     11  C         79.9650   80.8480   29.2190 C.2    16  GLY16       0.2639
     12  O         78.9580   80.1540   29.1830 O.2    16  GLY16      -0.2714
     13  N         80.0140   82.0360   28.6400 N.am   17  PHE17      -0.1959
     14  CA        78.9000   82.5100   27.8260 C.3    17  PHE17       0.1771
     15  C         79.3950   83.5650   26.8890 C.2    17  PHE17       0.2620
     16  O         80.4000   84.2130   27.1630 O.2    17  PHE17      -0.2715
     17  CB        77.7250   83.0410   28.6990 C.3    17  PHE17       0.0574
     18  CG        77.9820   84.3630   29.3200 C.ar   17  PHE17      -0.0200
     19  CD1       77.4900   85.5420   28.7230 C.ar   17  PHE17      -0.0042
     20  CD2       78.7020   84.4650   30.5100 C.ar   17  PHE17      -0.0042
     21  CE1       77.7350   86.7660   29.2900 C.ar   17  PHE17      -0.0003
     22  CE2       78.9570   85.7070   31.0680 C.ar   17  PHE17      -0.0003
     23  CZ        78.4670   86.8530   30.4630 C.ar   17  PHE17      -0.0000
     24  N         78.6570   83.7580   25.8040 N.am   18  GLY18      -0.1940
     25  CA        78.9620   84.7950   24.8430 C.3    18  GLY18       0.2014
     26  C         77.6740   85.3240   24.2800 C.2    18  GLY18       0.2639
     27  O         76.6240   85.1430   24.8950 O.2    18  GLY18      -0.2714
     28  N         77.7580   85.9620   23.1140 N.am   19  GLY19      -0.1939
     29  CA        76.6200   86.6060   22.4930 C.3    19  GLY19       0.2014
     30  C         75.5420   85.6750   21.9640 C.2    19  GLY19       0.2639
     31  O         74.3790   86.0730   21.8730 O.2    19  GLY19      -0.2714
     32  N         75.9030   84.4450   21.6110 N.am   20  MET20      -0.1963
     33  CA        74.9030   83.5500   21.0280 C.3    20  MET20       0.1736
     34  C         74.6350   82.2580   21.7790 C.2    20  MET20       0.2617
     35  O         73.7730   81.4820   21.3670 O.2    20  MET20      -0.2715
     36  CB        75.1260   83.3450   19.5070 C.3    20  MET20       0.0427
     37  CG        76.1370   82.3120   19.1070 C.3    20  MET20       0.0599
     38  SD        75.5710   81.2600   17.7150 S.3    20  MET20      -0.1393
     39  CE        76.0130   79.6480   18.3250 C.3    20  MET20       0.0692
     40  N         75.3110   82.0710   22.9180 N.am   21  SER21      -0.1950
     41  CA        75.2170   80.8350   23.6850 C.3    21  SER21       0.1924
     42  C         75.8410   80.8660   25.0990 C.2    21  SER21       0.2314
     43  O         76.5270   81.8230   25.4810 O.2    21  SER21      -0.2863
     44  CB        75.8900   79.7190   22.8990 C.3    21  SER21       0.2116
     45  OG        77.2600   80.0120   22.7400 O.3    21  SER21      -0.2180
     46  N         77.5250   77.9510   28.3070 N.3    23  VAL23      -0.1245
     47  CA        78.0220   76.5970   28.6020 C.3    23  VAL23       0.1561
     48  C         77.8400   76.2970   30.0860 C.2    23  VAL23       0.2260
     49  O         78.2770   77.0720   30.9440 O.2    23  VAL23      -0.2867
     50  CB        79.5270   76.4480   28.2510 C.3    23  VAL23       0.0252
     51  CG1       80.0130   75.0140   28.5270 C.3    23  VAL23       0.0019
     52  CG2       79.8050   76.8360   26.8100 C.3    23  VAL23       0.0019
     53  N         79.9900   69.0130   29.8530 N.3    36  ALA36      -0.1245
     54  CA        79.8280   70.4480   29.5870 C.3    36  ALA36       0.1562
     55  C         78.7290   70.4950   28.5520 C.2    36  ALA36       0.2260
     56  O         78.7470   69.7110   27.5940 O.2    36  ALA36      -0.2867
     57  CB        81.1350   71.0870   29.0380 C.3    36  ALA36       0.0290
     58  N         76.6400   73.0080   26.0360 N.3    38  LYS38      -0.1245
     59  CA        76.4940   74.2830   25.3610 C.3    38  LYS38       0.1561
     60  C         75.0650   74.4220   24.8960 C.2    38  LYS38       0.2260
     61  O         74.5250   73.5440   24.2560 O.2    38  LYS38      -0.2867
     62  CB        77.4820   74.4320   24.2040 C.3    38  LYS38       0.0271
     63  CG        77.6460   75.9100   23.7690 C.3    38  LYS38       0.0035
     64  CD        78.3510   76.0590   22.4450 C.3    38  LYS38       0.0206
     65  CE        79.7490   76.5530   22.6380 C.3    38  LYS38       0.1093
     66  NZ        80.2800   77.3170   21.4750 N.3    38  LYS38      -0.1314
     67  N         78.3230   73.5500   14.0720 N.3    57  GLU57      -0.1245
     68  CA        79.4100   73.5260   15.0620 C.3    57  GLU57       0.1567
     69  C         79.5490   72.1290   15.6940 C.2    57  GLU57       0.2260
     70  O         80.6600   71.6010   15.8290 O.2    57  GLU57      -0.2867
     71  CB        79.1810   74.5870   16.1410 C.3    57  GLU57       0.0388
     72  CG        80.0470   74.4040   17.3670 C.3    57  GLU57       0.1160
     73  CD        79.9300   75.5400   18.3890 C.2    57  GLU57       0.3649
     74  OE1       79.2680   76.5750   18.0910 O.co2  57  GLU57      -0.2457
     75  OE2       80.5070   75.3610   19.4950 O.co2  57  GLU57      -0.2457
     76  N         88.3280   69.0970   22.2700 N.3    70  VAL70      -0.1245
     77  CA        87.0930   68.7890   23.0640 C.3    70  VAL70       0.1561
     78  C         86.1320   67.8820   22.3060 C.2    70  VAL70       0.2260
     79  O         85.6350   68.2240   21.2300 O.2    70  VAL70      -0.2867
     80  CB        86.3880   70.0970   23.5860 C.3    70  VAL70       0.0252
     81  CG1       85.0890   69.8150   24.3830 C.3    70  VAL70       0.0019
     82  CG2       87.3590   70.8270   24.5150 C.3    70  VAL70       0.0019
     83  N         79.3110   67.9350   25.6110 N.3    90  MET90      -0.1230
     84  CA        80.7170   67.8280   25.3460 C.3    90  MET90       0.1702
     85  C         81.4580   67.2300   26.5540 C.2    90  MET90       0.2595
     86  O         80.9330   67.2240   27.6470 O.2    90  MET90      -0.2718
     87  CB        81.2870   69.2350   25.1250 C.3    90  MET90       0.0401
     88  CG        80.8640   69.9070   23.8270 C.3    90  MET90       0.0596
     89  SD        81.5410   71.5730   23.7490 S.3    90  MET90      -0.1393
     90  CE        80.6140   72.4040   25.0700 C.3    90  MET90       0.0692
     91  N         82.7100   66.8030   26.3450 N.am   91  GLU91      -0.1920
     92  CA        83.5560   66.4080   27.4720 C.3    91  GLU91       0.1949
     93  C         83.8050   67.6190   28.3650 C.2    91  GLU91       0.2659
     94  O         84.0720   68.7320   27.8870 O.2    91  GLU91      -0.2711
     95  CB        84.8650   65.7270   27.0120 C.2    91  GLU91       0.0111
     96  CG        86.0180   66.6520   26.7570 C.2    91  GLU91       0.0838
     97  CD        87.2980   65.9730   26.2780 C.2    91  GLU91       0.3877
     98  OE1       88.0980   65.6430   27.1380 O.co2  91  GLU91      -0.2406
     99  OE2       87.5200   65.8030   25.0290 O.co2  91  GLU91      -0.2406
    100  N         83.6880   67.4230   29.6720 N.am   92  TYR92      -0.1957
    101  CA        83.9490   68.5110   30.5740 C.3    92  TYR92       0.1771
    102  C         85.4650   68.6290   30.8040 C.2    92  TYR92       0.2619
    103  O         86.1700   67.6440   31.0520 O.2    92  TYR92      -0.2715
    104  CB        83.1490   68.3240   31.8790 C.3    92  TYR92       0.0574
    105  CG        83.5800   69.1770   33.0430 C.ar   92  TYR92      -0.0198
    106  CD1       83.9720   68.5830   34.2270 C.ar   92  TYR92      -0.0009
    107  CD2       83.5080   70.5870   32.9970 C.ar   92  TYR92      -0.0009
    108  CE1       84.3560   69.3560   35.3390 C.ar   92  TYR92       0.0417
    109  CE2       83.9100   71.3880   34.1110 C.ar   92  TYR92       0.0417
    110  CZ        84.3090   70.7560   35.2710 C.ar   92  TYR92       0.1957
    111  OH        84.6660   71.4820   36.3920 O.3    92  TYR92      -0.2866
    112  N         85.9610   69.8430   30.6670 N.am   93  VAL93      -0.1977
    113  CA        87.3610   70.1310   30.8550 C.3    93  VAL93       0.1596
    114  C         87.4310   70.9410   32.1250 C.2    93  VAL93       0.2287
    115  O         86.8890   72.0450   32.1990 O.2    93  VAL93      -0.2864
    116  CB        87.9570   70.9350   29.6520 C.3    93  VAL93       0.0276
    117  CG1       89.4340   71.2640   29.8940 C.3    93  VAL93       0.0022
    118  CG2       87.8040   70.1740   28.3510 C.3    93  VAL93       0.0022
    119  N         91.0990   78.7830   30.5070 N.3    97  THR97      -0.1218
    120  CA        91.6170   79.1860   29.2270 C.3    97  THR97       0.1862
    121  C         92.9400   79.8630   29.4390 C.2    97  THR97       0.2287
    122  O         93.2860   80.2790   30.5620 O.2    97  THR97      -0.2866
    123  CB        90.6340   80.1410   28.4780 C.3    97  THR97       0.1770
    124  OG1       90.4120   81.3250   29.2620 O.3    97  THR97      -0.2211
    125  CG2       89.2290   79.5140   28.4030 C.3    97  THR97       0.0375
    126  N         92.5220   83.3810   30.5860 N.3   100  ASP100     -0.1239
    127  CA        92.4500   83.5060   32.0490 C.3   100  ASP100      0.1674
    128  C         93.8300   83.3740   32.6910 C.2   100  ASP100      0.2266
    129  O         94.1660   84.1420   33.5480 O.2   100  ASP100     -0.2867
    130  CB        91.4780   82.4760   32.6310 C.3   100  ASP100      0.1410
    131  CG        90.0170   82.7320   32.1960 C.2   100  ASP100      0.3668
    132  OD1       89.2160   81.7430   32.1770 O.co2 100  ASP100     -0.2456
    133  OD2       89.5820   83.8780   31.8510 O.co2 100  ASP100     -0.2456
    134  N         92.4550   81.3010   19.2830 N.3   138  LYS138     -0.1245
    135  CA        92.7610   82.4260   20.1460 C.3   138  LYS138      0.1561
    136  C         92.8130   81.8840   21.5670 C.2   138  LYS138      0.2260
    137  O         92.3230   80.8060   21.7800 O.2   138  LYS138     -0.2867
    138  CB        91.7250   83.5430   19.9900 C.3   138  LYS138      0.0271
    139  CG        90.3020   83.1880   20.2290 C.3   138  LYS138      0.0035
    140  CD        89.4890   84.4280   19.6960 C.3   138  LYS138      0.0206
    141  CE        88.0480   84.3760   20.1520 C.3   138  LYS138      0.1093
    142  NZ        87.3420   83.2380   19.5270 N.3   138  LYS138     -0.1314
    143  N         91.0780   82.4320   24.3070 N.3   140  ALA140     -0.1231
    144  CA        89.7800   82.0860   24.8960 C.3   140  ALA140      0.1694
    145  C         89.2280   80.7430   24.4000 C.2   140  ALA140      0.2592
    146  O         88.3020   80.1970   25.0160 O.2   140  ALA140     -0.2718
    147  CB        88.7760   83.1710   24.6510 C.3   140  ALA140      0.0304
    148  N         89.7860   80.2140   23.3090 N.am  141  ASN141     -0.1974
    149  CA        89.3570   78.9120   22.7570 C.3   141  ASN141      0.1688
    150  C         90.3230   77.7330   22.9980 C.2   141  ASN141      0.2292
    151  O         90.2500   76.7090   22.3320 O.2   141  ASN141     -0.2864
    152  CB        89.0130   79.0590   21.2640 C.3   141  ASN141      0.1181
    153  CG        87.7410   79.8700   21.0500 C.2   141  ASN141      0.2629
    154  OD1       86.8870   79.9450   21.9370 O.2   141  ASN141     -0.2716
    155  ND2       87.6040   80.4740   19.8810 N.am  141  ASN141     -0.0877
    156  N         92.0040   75.6430   26.3780 N.3   143  MET143     -0.1245
    157  CA        92.0100   75.4720   27.8080 C.3   143  MET143      0.1570
    158  C         93.1620   74.5820   28.2100 C.2   143  MET143      0.2261
    159  O         93.6720   73.8300   27.3800 O.2   143  MET143     -0.2867
    160  CB        90.7030   74.8630   28.2760 C.3   143  MET143      0.0387
    161  CG        89.5310   75.8360   28.3390 C.3   143  MET143      0.0595
    162  SD        88.0680   74.9980   28.8330 S.3   143  MET143     -0.1393
    163  CE        88.1980   74.9860   30.6880 C.3   143  MET143      0.0692
    164  N         88.9860   74.1260   21.5980 N.3   153  MET153     -0.1230
    165  CA        87.5410   74.0770   21.4800 C.3   153  MET153      0.1702
    166  C         86.9750   75.1460   20.5600 C.2   153  MET153      0.2592
    167  O         87.7120   75.9030   19.9230 O.2   153  MET153     -0.2718
    168  CB        86.9070   74.2190   22.8680 C.3   153  MET153      0.0401
    169  CG        87.1430   75.5610   23.5020 C.3   153  MET153      0.0596
    170  SD        86.8840   75.4340   25.2680 S.3   153  MET153     -0.1393
    171  CE        88.0650   73.9480   25.6110 C.3   153  MET153      0.0692
    172  N         85.6490   75.1540   20.4760 N.am  154  ASP154     -0.1974
    173  CA        84.8960   76.1670   19.7570 C.3   154  ASP154      0.1709
    174  C         85.0850   76.1280   18.2430 C.2   154  ASP154      0.2293
    175  O         85.8750   76.8820   17.6610 O.2   154  ASP154     -0.2864
    176  CB        85.1330   77.5550   20.3400 C.3   154  ASP154      0.1436
    177  CG        84.1930   78.5980   19.7720 C.2   154  ASP154      0.3671
    178  OD1       84.2900   79.7610   20.2370 O.co2 154  ASP154     -0.2456
    179  OD2       83.3280   78.3560   18.8860 O.co2 154  ASP154     -0.2456
@<TRIPOS>BOND
     1    67    68    1
     2    68    69    1
     3    68    71    1
     4    69    70    2
     5    71    72    1
     6    72    73    1
     7   175   174    2
     8    38    39    1
     9    38    37    1
    10    74    73   ar
    11   174   173    1
    12    73    75   ar
    13   179   177   ar
    14    37    36    1
    15   134   135    1
    16    36    33    1
    17   142   141    1
    18   140   141    1
    19   140   139    1
    20   173   176    1
    21   173   172    1
    22   177   178   ar
    23   177   176    1
    24   155   153   am
    25   167   166    2
    26   138   135    1
    27   138   139    1
    28   135   136    1
    29   172   166   am
    30   166   165    1
    31    33    32    1
    32    33    34    1
    33   153   152    1
    34   153   154    2
    35    79    78    2
    36   152   149    1
    37    35    34    2
    38    66    65    1
    39   165   164    1
    40   165   168    1
    41   136   137    2
    42    32    30   am
    43    34    40   am
    44    31    30    2
    45    30    29    1
    46    76    77    1
    47    78    77    1
    48   151   150    2
    49    64    65    1
    50    64    63    1
    51    29    28    1
    52    45    44    1
    53   149   150    1
    54   149   148    1
    55   168   169    1
    56    44    41    1
    57    40    41    1
    58    77    80    1
    59    28    26   am
    60   148   145   am
    61   169   170    1
    62    80    81    1
    63    80    82    1
    64    41    42    1
    65    89    88    1
    66    89    90    1
    67    63    62    1
    68    88    87    1
    69    62    59    1
    70    61    60    2
    71    26    25    1
    72    26    27    2
    73   143   144    1
    74   145   144    1
    75   145   146    2
    76   147   144    1
    77    25    24    1
    78    60    59    1
    79    99    97   ar
    80    42    43    2
    81    87    84    1
    82   170   171    1
    83    84    83    1
    84    84    85    1
    85    59    58    1
    86    24    15   am
    87    97    96    1
    88    97    98   ar
    89    91    85   am
    90    91    92    1
    91   156   157    1
    92    85    86    2
    93    96    95    2
    94    52    50    1
    95    15    16    2
    96    15    14    1
    97    95    92    1
    98   159   158    2
    99    92    93    1
   100    56    55    2
   101   157   158    1
   102   157   160    1
   103    14    13    1
   104    14    17    1
   105    94    93    2
   106    50    51    1
   107    50    47    1
   108   160   161    1
   109    46    47    1
   110   161   162    1
   111   118   116    1
   112    93   100   am
   113   125   123    1
   114   123   120    1
   115   123   124    1
   116    55    54    1
   117    47    48    1
   118    13    11   am
   119    17    18    1
   120    19    21   ar
   121    19    18   ar
   122   162   163    1
   123    57    54    1
   124    12    11    2
   125    11    10    1
   126   120   121    1
   127   120   119    1
   128    21    23   ar
   129    18    20   ar
   130   121   122    2
   131    54    53    1
   132   116   117    1
   133   116   113    1
   134   100   101    1
   135    10     9    1
   136    48    49    2
   137    23    22   ar
   138    20    22   ar
   139   101   102    1
   140   101   104    1
   141   126   127    1
   142   112   102   am
   143   112   113    1
   144   102   103    2
   145   113   114    1
   146     9     3   am
   147   133   131   ar
   148   104   105    1
   149     3     4    2
   150     3     2    1
   151   127   130    1
   152   127   128    1
   153   114   115    2
   154   132   131   ar
   155   131   130    1
   156     5     2    1
   157     5     6    1
   158     7     6    1
   159   128   129    2
   160     2     1    1
   161   107   105   ar
   162   107   109   ar
   163   105   106   ar
   164     6     8    1
   165   109   110   ar
   166   106   108   ar
   167   110   108   ar
   168   110   111    1
