@<TRIPOS>MOLECULE
tmp/1o70A00.pdb
 90 85 0 0 0
SMALL
GASTEIGER

@<TRIPOS>ATOM
      1  N         94.1570   54.7230   15.4420 N.3    94  TYR94      -0.1241
      2  CA        94.9030   54.9660   14.2220 C.3    94  TYR94       0.1605
      3  C         94.3520   56.2700   13.6890 C.2    94  TYR94       0.2264
      4  O         93.2290   56.6520   14.0240 O.2    94  TYR94      -0.2867
      5  CB        94.7890   53.7960   13.2240 C.3    94  TYR94       0.0534
      6  CG        93.4300   53.5150   12.6690 C.ar   94  TYR94      -0.0201
      7  CD1       92.9630   54.1900   11.5330 C.ar   94  TYR94      -0.0009
      8  CD2       92.6000   52.5760   13.2770 C.ar   94  TYR94      -0.0009
      9  CE1       91.7050   53.9380   11.0190 C.ar   94  TYR94       0.0417
     10  CE2       91.3450   52.3120   12.7840 C.ar   94  TYR94       0.0417
     11  CZ        90.8990   52.9950   11.6500 C.ar   94  TYR94       0.1957
     12  OH        89.6560   52.7250   11.1210 O.3    94  TYR94      -0.2866
     13  N         94.0290   59.3720   10.3960 N.3    96  ASN96      -0.1240
     14  CA        93.9130   59.6260    8.9770 C.3    96  ASN96       0.1653
     15  C         94.2530   61.0970    8.8070 C.2    96  ASN96       0.2266
     16  O         93.6850   61.9500    9.4950 O.2    96  ASN96      -0.2867
     17  CB        92.4990   59.3760    8.4710 C.3    96  ASN96       0.1155
     18  CG        92.3690   59.6650    6.9900 C.2    96  ASN96       0.2627
     19  OD1       93.0960   59.0970    6.1760 O.2    96  ASN96      -0.2716
     20  ND2       91.4480   60.5510    6.6320 N.am   96  ASN96      -0.0877
     21  N         94.6580   64.3690    6.0940 N.3    98  ARG98      -0.1245
     22  CA        94.3110   64.9480    4.7950 C.3    98  ARG98       0.1563
     23  C         94.8620   66.3680    4.6770 C.2    98  ARG98       0.2260
     24  O         94.9190   67.0980    5.6660 O.2    98  ARG98      -0.2867
     25  CB        92.8000   65.0320    4.6220 C.3    98  ARG98       0.0307
     26  CG        92.0670   63.7250    4.5460 C.3    98  ARG98       0.0489
     27  CD        90.5890   63.9990    4.7840 C.3    98  ARG98       0.2205
     28  NE        90.1210   65.1050    3.9500 N.pl3  98  ARG98      -0.0865
     29  CZ        88.9680   65.7400    4.1320 C.cat  98  ARG98       0.5346
     30  NH1       88.1630   65.3800    5.1260 N.pl3  98  ARG98       0.1354
     31  NH2       88.6150   66.7260    3.3130 N.pl3  98  ARG98       0.1354
     32  N         93.6880   68.1640    7.9750 N.3   105  VAL105     -0.1245
     33  CA        92.5710   67.6180    8.7190 C.3   105  VAL105      0.1561
     34  C         93.0160   66.2800    9.2670 C.2   105  VAL105      0.2260
     35  O         93.3670   65.3610    8.5180 O.2   105  VAL105     -0.2867
     36  CB        91.3220   67.4280    7.8440 C.3   105  VAL105      0.0252
     37  CG1       90.3070   66.5360    8.5690 C.3   105  VAL105      0.0019
     38  CG2       90.6900   68.7850    7.5670 C.3   105  VAL105      0.0019
     39  N         91.9910   63.1010   11.7520 N.3   107  THR107     -0.1203
     40  CA        90.9260   62.4030   12.4510 C.3   107  THR107      0.1994
     41  C         91.5150   61.1430   13.0720 C.2   107  THR107      0.2618
     42  O         92.5680   60.6580   12.6480 O.2   107  THR107     -0.2717
     43  CB        89.7580   62.0150   11.5020 C.3   107  THR107      0.1784
     44  OG1       90.2480   61.2330   10.3960 O.3   107  THR107     -0.2211
     45  CG2       89.0430   63.2750   10.9930 C.3   107  THR107      0.0376
     46  N         90.8460   60.6310   14.0980 N.am  108  VAL108     -0.1965
     47  CA        91.2900   59.4300   14.7910 C.3   108  VAL108      0.1727
     48  C         90.1090   58.4840   14.9520 C.2   108  VAL108      0.2616
     49  O         88.9660   58.9270   15.1220 O.2   108  VAL108     -0.2715
     50  CB        91.8400   59.7620   16.2030 C.3   108  VAL108      0.0290
     51  CG1       90.7840   60.4860   17.0310 C.3   108  VAL108      0.0023
     52  CG2       92.2620   58.4790   16.9120 C.3   108  VAL108      0.0023
     53  N         90.3810   57.1840   14.8930 N.am  109  GLU109     -0.1977
     54  CA        89.3330   56.1840   15.0470 C.3   109  GLU109      0.1602
     55  C         89.6720   55.2870   16.2220 C.2   109  GLU109      0.2287
     56  O         90.7280   54.6630   16.2530 O.2   109  GLU109     -0.2864
     57  CB        89.1870   55.3200   13.7840 C.3   109  GLU109      0.0415
     58  CG        88.2710   54.1050   13.9960 C.3   109  GLU109      0.1163
     59  CD        86.8010   54.4830   14.1270 C.2   109  GLU109      0.3649
     60  OE1       86.0370   53.7020   14.7290 O.co2 109  GLU109     -0.2457
     61  OE2       86.4040   55.5520   13.6100 O.co2 109  GLU109     -0.2457
     62  N         84.9220   58.0340   15.8520 N.3   114  ASN114     -0.1240
     63  CA        85.7230   58.7780   14.8810 C.3   114  ASN114      0.1653
     64  C         85.6920   60.2310   15.3370 C.2   114  ASN114      0.2266
     65  O         84.6290   60.8520   15.3790 O.2   114  ASN114     -0.2867
     66  CB        85.1150   58.6730   13.4800 C.3   114  ASN114      0.1155
     67  CG        85.8520   59.5260   12.4590 C.2   114  ASN114      0.2627
     68  OD1       86.0170   60.7290   12.6720 O.2   114  ASN114     -0.2716
     69  ND2       86.3050   58.9180   11.3600 N.am  114  ASN114     -0.0877
     70  N         79.7880   56.2010    7.6360 N.3   149  SER149     -0.1202
     71  CA        80.8150   57.1810    7.9550 C.3   149  SER149      0.2020
     72  C         82.2710   56.6800    7.9760 C.2   149  SER149      0.2619
     73  O         83.1950   57.4890    8.0670 O.2   149  SER149     -0.2717
     74  CB        80.4810   57.8770    9.2840 C.3   149  SER149      0.2103
     75  OG        80.4110   56.9700   10.3560 O.3   149  SER149     -0.2182
     76  N         82.4800   55.3680    7.8810 N.am  150  ASP150     -0.1960
     77  CA        83.8270   54.7810    7.9100 C.3   150  ASP150      0.1825
     78  C         84.2990   54.3900    6.5030 C.2   150  ASP150      0.2464
     79  O         83.8170   53.4100    5.9230 O.2   150  ASP150     -0.2730
     80  CB        83.8330   53.5370    8.8060 C.3   150  ASP150      0.1450
     81  CG        85.2390   53.1030    9.2140 C.2   150  ASP150      0.3671
     82  OD1       86.1710   53.1570    8.3770 O.co2 150  ASP150     -0.2456
     83  OD2       85.4120   52.6810   10.3780 O.co2 150  ASP150     -0.2456
     84  N         85.2830   55.1210    5.9500 N.am  151  PRO151     -0.2727
     85  CA        85.7740   54.8040    4.6000 C.3   151  PRO151      0.1402
     86  C         86.2500   53.3630    4.4250 C.2   151  PRO151      0.2269
     87  O         86.2060   52.8040    3.3210 O.2   151  PRO151     -0.2865
     88  CB        86.9320   55.7860    4.3970 C.3   151  PRO151      0.0296
     89  CG        86.6780   56.8730    5.3990 C.3   151  PRO151      0.0237
     90  CD        86.1350   56.1370    6.5870 C.3   151  PRO151      0.0939
@<TRIPOS>BOND
     1    31    29    1
     2    87    86    2
     3    28    29    2
     4    28    27    1
     5    29    30    1
     6    88    85    1
     7    88    89    1
     8    86    85    1
     9    26    25    1
    10    26    27    1
    11    85    84    1
    12    25    22    1
    13    23    22    1
    14    23    24    2
    15    22    21    1
    16    89    90    1
    17    79    78    2
    18    84    78   am
    19    84    90    1
    20    19    18    2
    21    78    77    1
    22    20    18   am
    23    18    17    1
    24    38    36    1
    25    70    71    1
    26    36    37    1
    27    36    33    1
    28    76    77    1
    29    76    72   am
    30    77    80    1
    31    71    72    1
    32    71    74    1
    33    32    33    1
    34    72    73    2
    35    82    81   ar
    36    17    14    1
    37    35    34    2
    38    33    34    1
    39    80    81    1
    40    15    14    1
    41    15    16    2
    42    14    13    1
    43    81    83   ar
    44    74    75    1
    45    44    43    1
    46    45    43    1
    47     9     7   ar
    48     9    11   ar
    49    12    11    1
    50    69    67   am
    51    43    40    1
    52     7     6   ar
    53    11    10   ar
    54    39    40    1
    55    40    41    1
    56    67    68    2
    57    67    66    1
    58    42    41    2
    59     6     5    1
    60     6     8   ar
    61    10     8   ar
    62    41    46   am
    63     5     2    1
    64    66    63    1
    65    61    59   ar
    66     3     4    2
    67     3     2    1
    68    57    58    1
    69    57    54    1
    70    58    59    1
    71    46    47    1
    72    59    60   ar
    73     2     1    1
    74    47    48    1
    75    47    50    1
    76    63    64    1
    77    63    62    1
    78    53    48   am
    79    53    54    1
    80    48    49    2
    81    54    55    1
    82    64    65    2
    83    50    52    1
    84    50    51    1
    85    55    56    2
