@<TRIPOS>MOLECULE
tmp/1o7aD00.pdb
 135 133 0 0 0
SMALL
GASTEIGER

@<TRIPOS>ATOM
      1  N         72.7400   27.2460   -2.2440 N.3   144  ARG144     -0.1245
      2  CA        72.3890   26.6540   -0.9500 C.3   144  ARG144      0.1563
      3  C         72.1930   27.7790    0.0530 C.2   144  ARG144      0.2260
      4  O         71.3540   27.6860    0.9420 O.2   144  ARG144     -0.2867
      5  CB        73.4630   25.6670   -0.5040 C.3   144  ARG144      0.0307
      6  CG        73.2950   24.2880   -1.1450 C.3   144  ARG144      0.0489
      7  CD        73.0300   24.3510   -2.6670 C.3   144  ARG144      0.2205
      8  NE        72.8690   23.0020   -3.2200 N.pl3 144  ARG144     -0.0865
      9  CZ        73.8780   22.1860   -3.5240 C.cat 144  ARG144      0.5346
     10  NH1       75.1310   22.5790   -3.3520 N.pl3 144  ARG144      0.1354
     11  NH2       73.6350   20.9550   -3.9550 N.pl3 144  ARG144      0.1354
     12  N         79.4660   28.5010   -8.5280 N.3   170  HIS170     -0.1241
     13  CA        78.3390   27.5710   -8.6320 C.3   170  HIS170      0.1621
     14  C         77.1930   28.4630   -8.1790 C.2   170  HIS170      0.2264
     15  O         76.7480   28.4150   -7.0230 O.2   170  HIS170     -0.2867
     16  CB        78.5210   26.4070   -7.6530 C.3   170  HIS170      0.0745
     17  CG        77.5440   25.2970   -7.8600 C.ar  170  HIS170      0.0817
     18  ND1       77.7580   24.2810   -8.7640 N.ar  170  HIS170     -0.2268
     19  CD2       76.3310   25.0620   -7.3060 C.ar  170  HIS170      0.1154
     20  CE1       76.7190   23.4630   -8.7560 C.ar  170  HIS170      0.1986
     21  NE2       75.8390   23.9150   -7.8800 N.ar  170  HIS170     -0.2212
     22  N         71.4090   26.2420   -8.2320 N.3   173  ASP173     -0.1239
     23  CA        71.2690   24.8200   -7.8970 C.3   173  ASP173      0.1674
     24  C         69.8100   24.5260   -7.5320 C.2   173  ASP173      0.2266
     25  O         68.9150   25.2830   -7.9170 O.2   173  ASP173     -0.2867
     26  CB        72.1970   24.4430   -6.7400 C.3   173  ASP173      0.1410
     27  CG        72.5650   22.9560   -6.7370 C.2   173  ASP173      0.3668
     28  OD1       73.7240   22.6360   -7.0840 O.co2 173  ASP173     -0.2456
     29  OD2       71.7000   22.1160   -6.3960 O.co2 173  ASP173     -0.2456
     30  N         70.2980   18.9740  -10.3970 N.3   227  HIS227     -0.1241
     31  CA        70.5030   20.1610   -9.5610 C.3   227  HIS227      0.1621
     32  C         69.8180   21.4030  -10.1410 C.2   227  HIS227      0.2264
     33  O         70.3200   22.5290   -9.9990 O.2   227  HIS227     -0.2867
     34  CB        72.0050   20.4310   -9.4120 C.3   227  HIS227      0.0745
     35  CG        72.6940   19.4890   -8.4790 C.ar  227  HIS227      0.0817
     36  ND1       72.4930   19.5120   -7.1120 N.ar  227  HIS227     -0.2268
     37  CD2       73.5700   18.4830   -8.7140 C.ar  227  HIS227      0.1154
     38  CE1       73.2170   18.5620   -6.5470 C.ar  227  HIS227      0.1986
     39  NE2       73.8780   17.9230   -7.4980 N.ar  227  HIS227     -0.2212
     40  N         76.5140   16.6910  -12.6660 N.3   284  ASP284     -0.1225
     41  CA        76.7620   15.7700  -11.5570 C.3   284  ASP284      0.1805
     42  C         75.4710   15.1860  -11.0270 C.2   284  ASP284      0.2597
     43  O         74.3930   15.7490  -11.2220 O.2   284  ASP284     -0.2718
     44  CB        77.4540   16.4980  -10.4030 C.3   284  ASP284      0.1424
     45  CG        76.6920   17.7550   -9.9740 C.2   284  ASP284      0.3668
     46  OD1       76.4030   18.5850  -10.8620 O.co2 284  ASP284     -0.2456
     47  OD2       76.3830   17.9290   -8.7720 O.co2 284  ASP284     -0.2456
     48  N         75.6040   14.0480  -10.3570 N.am  285  GLU285     -0.1979
     49  CA        74.5010   13.3510   -9.6960 C.3   285  GLU285      0.1602
     50  C         73.1410   13.3700  -10.3670 C.2   285  GLU285      0.2287
     51  O         72.1440   13.6650   -9.7100 O.2   285  GLU285     -0.2864
     52  CB        74.3400   13.9190   -8.2850 C.3   285  GLU285      0.0415
     53  CG        75.6360   14.0260   -7.5300 C.3   285  GLU285      0.1163
     54  CD        75.4770   14.6650   -6.1660 C.2   285  GLU285      0.3649
     55  OE1       75.0070   15.8210   -6.1030 O.co2 285  GLU285     -0.2457
     56  OE2       75.8310   14.0170   -5.1570 O.co2 285  GLU285     -0.2457
     57  N         81.5730   17.9030  -14.7770 N.3   335  TRP335     -0.1241
     58  CA        81.9080   17.0500  -13.6350 C.3   335  TRP335      0.1605
     59  C         82.1900   15.6550  -14.2190 C.2   335  TRP335      0.2264
     60  O         81.6710   15.3150  -15.2890 O.2   335  TRP335     -0.2867
     61  CB        80.7360   16.9960  -12.6540 C.3   335  TRP335      0.0550
     62  CG        80.5080   18.3020  -11.9120 C.ar  335  TRP335      0.0003
     63  CD1       79.3570   19.0390  -11.8830 C.ar  335  TRP335      0.0946
     64  CD2       81.4340   18.9680  -11.0390 C.ar  335  TRP335      0.0152
     65  NE1       79.5100   20.1170  -11.0440 N.ar  335  TRP335     -0.2442
     66  CE2       80.7730   20.0980  -10.5150 C.ar  335  TRP335      0.0810
     67  CE3       82.7590   18.7130  -10.6460 C.ar  335  TRP335      0.0012
     68  CZ2       81.3860   20.9760   -9.6130 C.ar  335  TRP335      0.0191
     69  CZ3       83.3700   19.5890   -9.7430 C.ar  335  TRP335      0.0001
     70  CH2       82.6790   20.7070   -9.2410 C.ar  335  TRP335      0.0015
     71  N         85.9270   15.0480   -9.0790 N.3   354  TRP354     -0.1241
     72  CA        85.5510   15.3520   -7.7010 C.3   354  TRP354      0.1605
     73  C         85.2930   14.1790   -6.7570 C.2   354  TRP354      0.2264
     74  O         85.3160   14.3600   -5.5390 O.2   354  TRP354     -0.2867
     75  CB        84.2880   16.2170   -7.6850 C.3   354  TRP354      0.0550
     76  CG        83.0380   15.4910   -8.1700 C.ar  354  TRP354      0.0003
     77  CD1       82.6010   15.3830   -9.4620 C.ar  354  TRP354      0.0946
     78  CD2       82.0400   14.8490   -7.3580 C.ar  354  TRP354      0.0152
     79  NE1       81.3830   14.7280   -9.5040 N.ar  354  TRP354     -0.2442
     80  CE2       81.0190   14.3890   -8.2290 C.ar  354  TRP354      0.0810
     81  CE3       81.9040   14.6230   -5.9800 C.ar  354  TRP354      0.0012
     82  CZ2       79.8780   13.7170   -7.7640 C.ar  354  TRP354      0.0191
     83  CZ3       80.7730   13.9550   -5.5200 C.ar  354  TRP354      0.0001
     84  CH2       79.7740   13.5110   -6.4070 C.ar  354  TRP354      0.0015
     85  N         87.4260   19.0400   -0.6160 N.3   380  TYR380     -0.1241
     86  CA        86.0560   19.4540   -0.3260 C.3   380  TYR380      0.1605
     87  C         86.1070   20.0690    1.0670 C.2   380  TYR380      0.2264
     88  O         85.8770   19.3840    2.0730 O.2   380  TYR380     -0.2867
     89  CB        85.1040   18.2450   -0.3360 C.3   380  TYR380      0.0534
     90  CG        84.4410   18.0200   -1.6810 C.ar  380  TYR380     -0.0201
     91  CD1       85.2010   17.9380   -2.8510 C.ar  380  TYR380     -0.0009
     92  CD2       83.0460   17.9820   -1.7970 C.ar  380  TYR380     -0.0009
     93  CE1       84.5910   17.8420   -4.1040 C.ar  380  TYR380      0.0417
     94  CE2       82.4340   17.8850   -3.0440 C.ar  380  TYR380      0.0417
     95  CZ        83.2140   17.8200   -4.1910 C.ar  380  TYR380      0.1957
     96  OH        82.6110   17.7730   -5.4350 O.3   380  TYR380     -0.2866
     97  N         84.1630   21.8900    2.5580 N.3   382  ASP382     -0.1225
     98  CA        82.8980   21.9730    3.2710 C.3   382  ASP382      0.1805
     99  C         82.7810   20.7990    4.2430 C.2   382  ASP382      0.2597
    100  O         82.0160   20.8520    5.2100 O.2   382  ASP382     -0.2718
    101  CB        81.7280   21.9890    2.2880 C.3   382  ASP382      0.1424
    102  CG        81.7080   20.7700    1.3650 C.2   382  ASP382      0.3668
    103  OD1       82.7710   20.4170    0.7980 O.co2 382  ASP382     -0.2456
    104  OD2       80.6090   20.1860    1.2020 O.co2 382  ASP382     -0.2456
    105  N         83.5540   19.7450    3.9950 N.am  383  LEU383     -0.1979
    106  CA        83.5400   18.5780    4.8680 C.3   383  LEU383      0.1596
    107  C         84.5540   18.7920    6.0000 C.2   383  LEU383      0.2287
    108  O         85.6610   18.2460    6.0040 O.2   383  LEU383     -0.2864
    109  CB        83.8520   17.3060    4.0580 C.3   383  LEU383      0.0297
    110  CG        82.9810   17.1320    2.7950 C.3   383  LEU383      0.0022
    111  CD1       83.4560   15.8990    2.0380 C.3   383  LEU383      0.0001
    112  CD2       81.4770   17.0150    3.1420 C.3   383  LEU383      0.0001
    113  N         81.1900   24.0000   -0.6900 N.3   419  TRP419     -0.1241
    114  CA        79.7660   23.8970   -0.9870 C.3   419  TRP419      0.1605
    115  C         79.0150   24.5800    0.1440 C.2   419  TRP419      0.2264
    116  O         79.5060   24.6520    1.2760 O.2   419  TRP419     -0.2867
    117  CB        79.3560   22.4300   -1.1510 C.3   419  TRP419      0.0550
    118  CG        80.0300   21.8110   -2.3380 C.ar  419  TRP419      0.0003
    119  CD1       81.1960   21.0920   -2.3370 C.ar  419  TRP419      0.0946
    120  CD2       79.6350   21.9300   -3.7120 C.ar  419  TRP419      0.0152
    121  NE1       81.5490   20.7610   -3.6190 N.ar  419  TRP419     -0.2442
    122  CE2       80.6080   21.2580   -4.4850 C.ar  419  TRP419      0.0810
    123  CE3       78.5530   22.5390   -4.3650 C.ar  419  TRP419      0.0012
    124  CZ2       80.5280   21.1680   -5.8840 C.ar  419  TRP419      0.0191
    125  CZ3       78.4710   22.4540   -5.7570 C.ar  419  TRP419      0.0001
    126  CH2       79.4550   21.7690   -6.5000 C.ar  419  TRP419      0.0015
    127  N         75.6780   24.0430    1.6920 N.3   421  GLU421     -0.1245
    128  CA        74.6010   23.5400    2.5300 C.3   421  GLU421      0.1567
    129  C         74.7040   24.1040    3.9580 C.2   421  GLU421      0.2260
    130  O         73.7030   24.5010    4.5510 O.2   421  GLU421     -0.2867
    131  CB        74.6330   22.0160    2.6020 C.3   421  GLU421      0.0388
    132  CG        74.1820   21.3310    1.3490 C.3   421  GLU421      0.1160
    133  CD        75.2920   21.1540    0.3340 C.2   421  GLU421      0.3649
    134  OE1       76.3980   21.7310    0.5160 O.co2 421  GLU421     -0.2457
    135  OE2       75.0410   20.4270   -0.6540 O.co2 421  GLU421     -0.2457
@<TRIPOS>BOND
     1    60    59    2
     2    57    58    1
     3    59    58    1
     4    58    61    1
     5    40    41    1
     6    61    62    1
     7    62    63   ar
     8    62    64   ar
     9    63    65   ar
    10    41    42    1
    11    41    44    1
    12    43    42    2
    13    65    66   ar
    14    64    67   ar
    15    64    66   ar
    16    42    48   am
    17    46    45   ar
    18    67    69   ar
    19    66    68   ar
    20    44    45    1
    21    30    31    1
    22    50    51    2
    23    50    49    1
    24    48    49    1
    25    32    33    2
    26    32    31    1
    27    45    47   ar
    28    69    70   ar
    29    49    52    1
    30    68    70   ar
    31    31    34    1
    32    79    77   ar
    33    79    80   ar
    34    77    76   ar
    35    34    35    1
    36    71    72    1
    37    18    20   ar
    38    18    17   ar
    39    20    21   ar
    40    37    35   ar
    41    37    39   ar
    42    13    12    1
    43    13    14    1
    44    13    16    1
    45    35    36   ar
    46    52    53    1
    47    22    23    1
    48    80    82   ar
    49    80    78   ar
    50    14    15    2
    51    76    75    1
    52    76    78   ar
    53    25    24    2
    54    23    24    1
    55    23    26    1
    56    21    19   ar
    57    17    16    1
    58    17    19   ar
    59    82    84   ar
    60    72    75    1
    61    72    73    1
    62    53    54    1
    63    39    38   ar
    64    78    81   ar
    65    36    38   ar
    66    28    27   ar
    67    73    74    2
    68    26    27    1
    69    27    29   ar
    70   126   124   ar
    71   126   125   ar
    72    84    83   ar
    73    54    55   ar
    74    54    56   ar
    75    81    83   ar
    76   124   122   ar
    77   125   123   ar
    78    96    95    1
    79   122   120   ar
    80   122   121   ar
    81   123   120   ar
    82    95    93   ar
    83    95    94   ar
    84    93    91   ar
    85    11     9    1
    86   120   118   ar
    87   121   119   ar
    88     9    10    1
    89     9     8    2
    90     8     7    1
    91    94    92   ar
    92    91    90   ar
    93     7     6    1
    94   118   119   ar
    95   118   117    1
    96     1     2    1
    97    92    90   ar
    98    90    89    1
    99   117   114    1
   100     6     5    1
   101   114   113    1
   102   114   115    1
   103     2     5    1
   104     2     3    1
   105   135   133   ar
   106    85    86    1
   107    89    86    1
   108    86    87    1
   109     3     4    2
   110   115   116    2
   111   133   134   ar
   112   133   132    1
   113   103   102   ar
   114    87    88    2
   115   104   102   ar
   116   132   131    1
   117   102   101    1
   118   127   128    1
   119   111   110    1
   120   101    98    1
   121   128   131    1
   122   128   129    1
   123    97    98    1
   124   110   112    1
   125   110   109    1
   126    98    99    1
   127   129   130    2
   128   105    99   am
   129   105   106    1
   130   109   106    1
   131    99   100    2
   132   106   107    1
   133   107   108    2
