@<TRIPOS>MOLECULE
tmp/1o7gA00.pdb
 144 139 0 0 0
SMALL
GASTEIGER

@<TRIPOS>ATOM
      1  N         10.6030   56.4750   87.0370 N.3   201  ASN201     -0.1225
      2  CA        10.4190   55.5480   85.9180 C.3   201  ASN201      0.1785
      3  C         11.7490   54.9540   85.5220 C.2   201  ASN201      0.2597
      4  O         11.8760   53.7330   85.3260 O.2   201  ASN201     -0.2718
      5  CB         9.7880   56.3260   84.7670 C.3   201  ASN201      0.1169
      6  CG         9.5830   55.5000   83.5200 C.2   201  ASN201      0.2627
      7  OD1        8.5590   54.8000   83.4030 O.2   201  ASN201     -0.2716
      8  ND2       10.5090   55.5700   82.6010 N.am  201  ASN201     -0.0877
      9  N         12.7800   55.8040   85.4490 N.am  202  PHE202     -0.1976
     10  CA        14.0840   55.3210   85.0500 C.3   202  PHE202      0.1639
     11  C         14.7830   54.5800   86.1620 C.2   202  PHE202      0.2290
     12  O         15.6120   53.7310   85.8660 O.2   202  PHE202     -0.2864
     13  CB        15.0050   56.4380   84.5860 C.3   202  PHE202      0.0560
     14  CG        14.8300   56.7910   83.1480 C.ar  202  PHE202     -0.0200
     15  CD1       13.6530   57.3400   82.6910 C.ar  202  PHE202     -0.0042
     16  CD2       15.8410   56.6320   82.2600 C.ar  202  PHE202     -0.0042
     17  CE1       13.4940   57.6370   81.3790 C.ar  202  PHE202     -0.0003
     18  CE2       15.6780   56.9460   80.9220 C.ar  202  PHE202     -0.0003
     19  CZ        14.4870   57.4300   80.5020 C.ar  202  PHE202     -0.0000
     20  N         11.6630   51.1230   86.8500 N.3   205  ASP205     -0.1225
     21  CA        10.4660   50.6570   86.2260 C.3   205  ASP205      0.1805
     22  C         10.6760   49.7880   85.0010 C.2   205  ASP205      0.2597
     23  O         10.5700   50.2500   83.8550 O.2   205  ASP205     -0.2718
     24  CB         9.5680   51.8330   85.8670 C.3   205  ASP205      0.1424
     25  CG         8.1600   51.4170   85.5430 C.2   205  ASP205      0.3668
     26  OD1        7.3250   52.3540   85.5160 O.co2 205  ASP205     -0.2456
     27  OD2        7.8000   50.2400   85.2190 O.co2 205  ASP205     -0.2456
     28  N         10.9600   48.5210   85.2200 N.am  206  ALA206     -0.1979
     29  CA        10.9830   47.6040   84.0900 C.3   206  ALA206      0.1597
     30  C          9.6010   47.0860   83.7430 C.2   206  ALA206      0.2287
     31  O          9.3830   46.6540   82.5700 O.2   206  ALA206     -0.2864
     32  CB        11.9340   46.4370   84.3660 C.3   206  ALA206      0.0319
     33  N          6.8450   48.5790   83.1960 N.3   208  HIS208     -0.1226
     34  CA         6.0820   49.3090   82.1550 C.3   208  HIS208      0.1752
     35  C          6.5140   49.0230   80.7180 C.2   208  HIS208      0.2595
     36  O          5.7550   49.2420   79.7720 O.2   208  HIS208     -0.2718
     37  CB         6.1400   50.8510   82.4310 C.3   208  HIS208      0.0759
     38  CG         7.3310   51.5280   81.8460 C.ar  208  HIS208      0.0818
     39  ND1        8.6300   51.3220   82.3000 N.ar  208  HIS208     -0.2268
     40  CD2        7.4230   52.3990   80.8180 C.ar  208  HIS208      0.1154
     41  CE1        9.4540   52.0590   81.5600 C.ar  208  HIS208      0.1986
     42  NE2        8.7470   52.7120   80.6530 N.ar  208  HIS208     -0.2212
     43  N          7.7180   48.4880   80.5370 N.am  209  VAL209     -0.1980
     44  CA         8.3400   48.4560   79.2400 C.3   209  VAL209      0.1595
     45  C          7.5120   47.7330   78.2070 C.2   209  VAL209      0.2287
     46  O          7.1460   48.2890   77.1630 O.2   209  VAL209     -0.2864
     47  CB         9.7590   47.9160   79.3230 C.3   209  VAL209      0.0276
     48  CG1       10.3640   47.7350   77.9060 C.3   209  VAL209      0.0022
     49  CG2       10.5990   48.9000   80.1110 C.3   209  VAL209      0.0022
     50  N          5.6390   50.5220   75.9610 N.3   213  HIS213     -0.1241
     51  CA         6.4740   50.6280   74.7660 C.3   213  HIS213      0.1621
     52  C          6.2040   49.5140   73.7550 C.2   213  HIS213      0.2264
     53  O          7.0470   49.2730   72.8890 O.2   213  HIS213     -0.2867
     54  CB         7.9660   50.6510   75.1240 C.3   213  HIS213      0.0745
     55  CG         8.3900   51.8280   75.9710 C.ar  213  HIS213      0.0817
     56  ND1        8.4170   53.1250   75.4870 N.ar  213  HIS213     -0.2268
     57  CD2        8.7520   51.9070   77.2750 C.ar  213  HIS213      0.1154
     58  CE1        8.8010   53.9420   76.4570 C.ar  213  HIS213      0.1986
     59  NE2        9.0240   53.2270   77.5460 N.ar  213  HIS213     -0.2212
     60  N         15.3350   44.0180   73.1640 N.3   224  PHE224     -0.1241
     61  CA        14.3520   43.7480   74.1990 C.3   224  PHE224      0.1605
     62  C         12.9920   43.5100   73.6010 C.2   224  PHE224      0.2264
     63  O         11.9760   43.5500   74.3080 O.2   224  PHE224     -0.2867
     64  CB        14.2460   44.9330   75.1490 C.3   224  PHE224      0.0534
     65  CG        15.5180   45.2420   75.8520 C.ar  224  PHE224     -0.0203
     66  CD1       16.3270   44.2090   76.3160 C.ar  224  PHE224     -0.0042
     67  CD2       15.9150   46.5640   76.0430 C.ar  224  PHE224     -0.0042
     68  CE1       17.4930   44.4810   76.9710 C.ar  224  PHE224     -0.0003
     69  CE2       17.0900   46.8430   76.7030 C.ar  224  PHE224     -0.0003
     70  CZ        17.8810   45.8050   77.1620 C.ar  224  PHE224     -0.0000
     71  N         19.4900   44.5170   83.3030 N.3   253  LEU253     -0.1245
     72  CA        18.9490   43.5260   82.3670 C.3   253  LEU253      0.1561
     73  C         20.1970   42.8780   81.7460 C.2   253  LEU253      0.2260
     74  O         20.8930   43.4500   80.9260 O.2   253  LEU253     -0.2867
     75  CB        18.1010   44.1970   81.2820 C.3   253  LEU253      0.0270
     76  CG        17.1700   43.2960   80.4240 C.3   253  LEU253      0.0019
     77  CD1       16.4520   42.2060   81.2180 C.3   253  LEU253      0.0001
     78  CD2       16.0620   44.1720   79.7410 C.3   253  LEU253      0.0001
     79  N         17.9950   49.7900   73.4340 N.3   260  VAL260     -0.1245
     80  CA        16.8380   50.1320   72.6250 C.3   260  VAL260      0.1561
     81  C         17.1820   50.3010   71.1480 C.2   260  VAL260      0.2260
     82  O         16.2880   50.5330   70.3210 O.2   260  VAL260     -0.2867
     83  CB        16.1940   51.4070   73.1730 C.3   260  VAL260      0.0252
     84  CG1       15.8410   51.2250   74.6140 C.3   260  VAL260      0.0019
     85  CG2       17.1430   52.5780   72.9800 C.3   260  VAL260      0.0019
     86  N         22.4370   46.1060   80.3710 N.3   295  HIS295     -0.1241
     87  CA        21.6830   47.3690   80.3040 C.3   295  HIS295      0.1621
     88  C         21.2920   47.8050   81.6890 C.2   295  HIS295      0.2264
     89  O         20.5930   47.0800   82.4010 O.2   295  HIS295     -0.2867
     90  CB        20.4500   47.0730   79.4640 C.3   295  HIS295      0.0745
     91  CG        19.7540   48.2910   78.9260 C.ar  295  HIS295      0.0817
     92  ND1       18.6900   48.8700   79.5730 N.ar  295  HIS295     -0.2268
     93  CD2       19.9900   49.0440   77.8250 C.ar  295  HIS295      0.1154
     94  CE1       18.2510   49.9010   78.8540 C.ar  295  HIS295      0.1986
     95  NE2       19.0440   50.0530   77.8080 N.ar  295  HIS295     -0.2212
     96  N         19.3400   50.6210   83.8170 N.3   297  ASN297     -0.1240
     97  CA        18.4530   51.7780   83.8920 C.3   297  ASN297      0.1653
     98  C         18.5810   52.3640   85.2920 C.2   297  ASN297      0.2266
     99  O         18.1380   51.8020   86.2340 O.2   297  ASN297     -0.2867
    100  CB        17.0110   51.4410   83.5190 C.3   297  ASN297      0.1155
    101  CG        16.3760   50.4060   84.4080 C.2   297  ASN297      0.2627
    102  OD1       16.6870   49.2380   84.3080 O.2   297  ASN297     -0.2716
    103  ND2       15.4270   50.8200   85.2410 N.am  297  ASN297     -0.0877
    104  N         20.4540   55.2540   80.7230 N.3   307  LEU307     -0.1245
    105  CA        20.3360   53.8480   80.2590 C.3   307  LEU307      0.1561
    106  C         21.7030   53.5210   79.7000 C.2   307  LEU307      0.2260
    107  O         22.0750   54.0070   78.6300 O.2   307  LEU307     -0.2867
    108  CB        19.2890   53.6620   79.1690 C.3   307  LEU307      0.0270
    109  CG        17.8580   54.1340   79.4200 C.3   307  LEU307      0.0019
    110  CD1       16.9870   53.8890   78.2260 C.3   307  LEU307      0.0001
    111  CD2       17.2890   53.5140   80.6610 C.3   307  LEU307      0.0001
    112  N         14.9910   58.3270   72.2300 N.3   352  PHE352     -0.1241
    113  CA        14.7330   59.0320   73.4810 C.3   352  PHE352      0.1605
    114  C         14.8740   60.5550   73.4750 C.2   352  PHE352      0.2264
    115  O         14.6970   61.1750   74.4960 O.2   352  PHE352     -0.2867
    116  CB        15.5980   58.3820   74.5900 C.3   352  PHE352      0.0534
    117  CG        14.9680   57.1750   75.1690 C.ar  352  PHE352     -0.0203
    118  CD1       14.0840   57.2810   76.2200 C.ar  352  PHE352     -0.0042
    119  CD2       15.1660   55.9460   74.6120 C.ar  352  PHE352     -0.0042
    120  CE1       13.4390   56.1790   76.7390 C.ar  352  PHE352     -0.0003
    121  CE2       14.5180   54.8320   75.1100 C.ar  352  PHE352     -0.0003
    122  CZ        13.6680   54.9230   76.1710 C.ar  352  PHE352     -0.0000
    123  N         10.3810   56.1790   71.4390 N.3   358  TRP358     -0.1241
    124  CA        10.1580   55.5430   72.7350 C.3   358  TRP358      0.1605
    125  C          9.7150   56.5390   73.8220 C.2   358  TRP358      0.2264
    126  O          8.7520   56.3160   74.5330 O.2   358  TRP358     -0.2867
    127  CB        11.4150   54.8130   73.2510 C.3   358  TRP358      0.0550
    128  CG        11.8590   53.6290   72.4570 C.ar  358  TRP358      0.0003
    129  CD1       12.2750   53.5770   71.1680 C.ar  358  TRP358      0.0946
    130  CD2       12.0430   52.3110   72.9780 C.ar  358  TRP358      0.0152
    131  NE1       12.6750   52.2960   70.8280 N.ar  358  TRP358     -0.2442
    132  CE2       12.5220   51.5040   71.9390 C.ar  358  TRP358      0.0810
    133  CE3       11.8170   51.7330   74.2410 C.ar  358  TRP358      0.0012
    134  CZ2       12.8140   50.1510   72.1260 C.ar  358  TRP358      0.0191
    135  CZ3       12.1130   50.4090   74.4310 C.ar  358  TRP358      0.0001
    136  CH2       12.5790   49.6260   73.3820 C.ar  358  TRP358      0.0015
    137  N          6.0200   57.4490   76.8100 N.3   362  ASP362     -0.1239
    138  CA         5.9280   57.7650   78.2400 C.3   362  ASP362      0.1674
    139  C          5.2730   59.1050   78.5580 C.2   362  ASP362      0.2266
    140  O          4.9230   59.3520   79.7040 O.2   362  ASP362     -0.2867
    141  CB         7.3330   57.7960   78.8770 C.3   362  ASP362      0.1410
    142  CG         8.0170   56.4490   78.8730 C.2   362  ASP362      0.3668
    143  OD1        9.0690   56.3250   78.2150 O.co2 362  ASP362     -0.2456
    144  OD2        7.5230   55.5090   79.5130 O.co2 362  ASP362     -0.2456
@<TRIPOS>BOND
     1    82    81    2
     2   131   129   ar
     3   131   132   ar
     4    81    80    1
     5   129   128   ar
     6   123   124    1
     7   132   134   ar
     8   132   130   ar
     9   134   136   ar
    10   112   113    1
    11   128   130   ar
    12   128   127    1
    13    80    83    1
    14    80    79    1
    15   124   127    1
    16   124   125    1
    17    53    52    2
    18   130   133   ar
    19    85    83    1
    20    60    61    1
    21    83    84    1
    22   136   135   ar
    23   114   113    1
    24   114   115    2
    25   113   116    1
    26    62    61    1
    27    62    63    2
    28    52    51    1
    29   125   126    2
    30    61    64    1
    31   133   135   ar
    32   116   117    1
    33   119   121   ar
    34   119   117   ar
    35    51    54    1
    36    51    50    1
    37   121   122   ar
    38    54    55    1
    39    64    65    1
    40   117   118   ar
    41    56    55   ar
    42    56    58   ar
    43    65    67   ar
    44    65    66   ar
    45    55    57   ar
    46    67    69   ar
    47   122   120   ar
    48   118   120   ar
    49    66    68   ar
    50    58    59   ar
    51    69    70   ar
    52   137   138    1
    53    68    70   ar
    54    46    45    2
    55    57    59   ar
    56    95    93   ar
    57    95    94   ar
    58    93    91   ar
    59    48    47    1
    60    45    44    1
    61   143   142   ar
    62   110   109    1
    63   138   139    1
    64   138   141    1
    65   139   140    2
    66   107   106    2
    67    94    92   ar
    68   142   141    1
    69   142   144   ar
    70    91    90    1
    71    91    92   ar
    72   108   109    1
    73   108   105    1
    74    44    47    1
    75    44    43    1
    76    47    49    1
    77   109   111    1
    78    90    87    1
    79   106   105    1
    80    78    76    1
    81    36    35    2
    82   105   104    1
    83    87    86    1
    84    87    88    1
    85    76    77    1
    86    76    75    1
    87    19    18   ar
    88    19    17   ar
    89    43    35   am
    90    42    40   ar
    91    42    41   ar
    92    35    34    1
    93    40    38   ar
    94    18    16   ar
    95    74    73    2
    96    75    72    1
    97    17    15   ar
    98    41    39   ar
    99    88    89    2
   100    73    72    1
   101    38    39   ar
   102    38    37    1
   103    34    37    1
   104    34    33    1
   105    16    14   ar
   106    72    71    1
   107    31    30    2
   108     8     6   am
   109    15    14   ar
   110    14    13    1
   111     7     6    2
   112   100    97    1
   113   100   101    1
   114     6     5    1
   115    30    29    1
   116    96    97    1
   117    23    22    2
   118    97    98    1
   119    29    32    1
   120    29    28    1
   121   102   101    2
   122   101   103   am
   123    13    10    1
   124     5     2    1
   125    22    28   am
   126    22    21    1
   127    10     9    1
   128    10    11    1
   129    27    25   ar
   130    98    99    2
   131     4     3    2
   132     9     3   am
   133    26    25   ar
   134     3     2    1
   135    25    24    1
   136    12    11    2
   137    24    21    1
   138     2     1    1
   139    21    20    1
