@<TRIPOS>MOLECULE
tmp/1o7nA00.pdb
 144 139 0 0 0
SMALL
GASTEIGER

@<TRIPOS>ATOM
      1  N         10.6860   56.5000   87.3880 N.3   201  ASN201     -0.1225
      2  CA        10.5250   55.5440   86.3050 C.3   201  ASN201      0.1785
      3  C         11.8840   54.9960   85.9050 C.2   201  ASN201      0.2597
      4  O         12.0350   53.7740   85.7310 O.2   201  ASN201     -0.2718
      5  CB         9.8150   56.2360   85.1340 C.3   201  ASN201      0.1169
      6  CG         9.6950   55.3650   83.9130 C.2   201  ASN201      0.2627
      7  OD1        8.7470   54.5870   83.8010 O.2   201  ASN201     -0.2716
      8  ND2       10.6390   55.4920   83.0000 N.am  201  ASN201     -0.0877
      9  N         12.8850   55.8620   85.7640 N.am  202  PHE202     -0.1976
     10  CA        14.2450   55.4010   85.4200 C.3   202  PHE202      0.1639
     11  C         14.9400   54.6760   86.5640 C.2   202  PHE202      0.2290
     12  O         15.7240   53.7480   86.2790 O.2   202  PHE202     -0.2864
     13  CB        15.1470   56.5380   84.9120 C.3   202  PHE202      0.0560
     14  CG        14.9450   56.8720   83.4580 C.ar  202  PHE202     -0.0200
     15  CD1       13.7240   57.3870   83.0200 C.ar  202  PHE202     -0.0042
     16  CD2       15.9620   56.7270   82.5450 C.ar  202  PHE202     -0.0042
     17  CE1       13.5280   57.6950   81.6780 C.ar  202  PHE202     -0.0003
     18  CE2       15.7580   57.0630   81.1850 C.ar  202  PHE202     -0.0003
     19  CZ        14.5250   57.5450   80.7770 C.ar  202  PHE202     -0.0000
     20  N         11.7610   51.1880   87.2580 N.3   205  ASP205     -0.1225
     21  CA        10.5530   50.6820   86.6600 C.3   205  ASP205      0.1805
     22  C         10.7730   49.8680   85.3900 C.2   205  ASP205      0.2597
     23  O         10.7540   50.3980   84.2810 O.2   205  ASP205     -0.2718
     24  CB         9.6160   51.8610   86.4050 C.3   205  ASP205      0.1424
     25  CG         8.2140   51.4310   86.1090 C.2   205  ASP205      0.3668
     26  OD1        7.2870   52.2150   86.4000 O.co2 205  ASP205     -0.2456
     27  OD2        7.9220   50.3630   85.5490 O.co2 205  ASP205     -0.2456
     28  N         10.9800   48.5670   85.5570 N.am  206  ALA206     -0.1979
     29  CA        11.0350   47.6660   84.4170 C.3   206  ALA206      0.1597
     30  C          9.6340   47.1440   84.1040 C.2   206  ALA206      0.2287
     31  O          9.3880   46.7080   82.9880 O.2   206  ALA206     -0.2864
     32  CB        12.0170   46.5250   84.6750 C.3   206  ALA206      0.0319
     33  N          6.8710   48.6330   83.5610 N.3   208  HIS208     -0.1226
     34  CA         6.1210   49.3580   82.5160 C.3   208  HIS208      0.1752
     35  C          6.5850   49.0610   81.1170 C.2   208  HIS208      0.2595
     36  O          5.8550   49.3350   80.1760 O.2   208  HIS208     -0.2718
     37  CB         6.2150   50.8870   82.7680 C.3   208  HIS208      0.0759
     38  CG         7.4140   51.5500   82.1790 C.ar  208  HIS208      0.0818
     39  ND1        8.7000   51.3720   82.6500 N.ar  208  HIS208     -0.2268
     40  CD2        7.5160   52.4170   81.1520 C.ar  208  HIS208      0.1154
     41  CE1        9.5340   52.1010   81.9360 C.ar  208  HIS208      0.1986
     42  NE2        8.8430   52.7600   81.0270 N.ar  208  HIS208     -0.2212
     43  N          7.7990   48.5450   80.9330 N.am  209  VAL209     -0.1980
     44  CA         8.3870   48.4750   79.5960 C.3   209  VAL209      0.1595
     45  C          7.5370   47.7720   78.5280 C.2   209  VAL209      0.2287
     46  O          7.2460   48.3460   77.4730 O.2   209  VAL209     -0.2864
     47  CB         9.8480   47.9440   79.6720 C.3   209  VAL209      0.0276
     48  CG1       10.4150   47.7200   78.2580 C.3   209  VAL209      0.0022
     49  CG2       10.6960   48.9550   80.4460 C.3   209  VAL209      0.0022
     50  N          5.7280   50.6030   76.3590 N.3   213  HIS213     -0.1241
     51  CA         6.5460   50.6600   75.1490 C.3   213  HIS213      0.1621
     52  C          6.2190   49.6020   74.1170 C.2   213  HIS213      0.2264
     53  O          7.0100   49.3930   73.2110 O.2   213  HIS213     -0.2867
     54  CB         8.0450   50.6630   75.4620 C.3   213  HIS213      0.0745
     55  CG         8.4840   51.8440   76.2720 C.ar  213  HIS213      0.0817
     56  ND1        8.4630   53.1280   75.7780 N.ar  213  HIS213     -0.2268
     57  CD2        8.9370   51.9400   77.5530 C.ar  213  HIS213      0.1154
     58  CE1        8.8810   53.9680   76.7100 C.ar  213  HIS213      0.1986
     59  NE2        9.1920   53.2760   77.7970 N.ar  213  HIS213     -0.2212
     60  N         15.2390   44.0210   73.4310 N.3   224  PHE224     -0.1241
     61  CA        14.2830   43.7360   74.4850 C.3   224  PHE224      0.1605
     62  C         12.8830   43.5300   73.9300 C.2   224  PHE224      0.2264
     63  O         11.9140   43.4120   74.6980 O.2   224  PHE224     -0.2867
     64  CB        14.2740   44.8870   75.4690 C.3   224  PHE224      0.0534
     65  CG        15.5740   45.0630   76.2040 C.ar  224  PHE224     -0.0203
     66  CD1       16.2780   43.9590   76.6520 C.ar  224  PHE224     -0.0042
     67  CD2       16.0820   46.3310   76.4520 C.ar  224  PHE224     -0.0042
     68  CE1       17.4620   44.1140   77.3330 C.ar  224  PHE224     -0.0003
     69  CE2       17.2700   46.4930   77.1360 C.ar  224  PHE224     -0.0003
     70  CZ        17.9570   45.3870   77.5750 C.ar  224  PHE224     -0.0000
     71  N         19.7200   44.6430   83.6380 N.3   253  LEU253     -0.1245
     72  CA        19.1990   43.6400   82.7090 C.3   253  LEU253      0.1561
     73  C         20.3940   42.9800   82.0790 C.2   253  LEU253      0.2260
     74  O         21.0560   43.5410   81.2060 O.2   253  LEU253     -0.2867
     75  CB        18.2900   44.2500   81.6740 C.3   253  LEU253      0.0270
     76  CG        16.7970   43.9640   81.8650 C.3   253  LEU253      0.0019
     77  CD1       16.4950   42.4900   81.5960 C.3   253  LEU253      0.0001
     78  CD2       16.3590   44.3430   83.2680 C.3   253  LEU253      0.0001
     79  N         17.9920   49.8000   73.8270 N.3   260  VAL260     -0.1245
     80  CA        16.8330   50.2040   73.0400 C.3   260  VAL260      0.1561
     81  C         17.1410   50.3790   71.5490 C.2   260  VAL260      0.2260
     82  O         16.2280   50.6010   70.7350 O.2   260  VAL260     -0.2867
     83  CB        16.2620   51.5070   73.6140 C.3   260  VAL260      0.0252
     84  CG1       16.0050   51.3740   75.1380 C.3   260  VAL260      0.0019
     85  CG2       17.2210   52.6650   73.3450 C.3   260  VAL260      0.0019
     86  N         22.4870   46.1800   80.6920 N.3   295  HIS295     -0.1241
     87  CA        21.7280   47.4330   80.6070 C.3   295  HIS295      0.1621
     88  C         21.3440   47.8990   82.0040 C.2   295  HIS295      0.2264
     89  O         20.6180   47.1980   82.7170 O.2   295  HIS295     -0.2867
     90  CB        20.4770   47.1560   79.7800 C.3   295  HIS295      0.0745
     91  CG        19.7810   48.3910   79.2820 C.ar  295  HIS295      0.0817
     92  ND1       18.7290   48.9770   79.9490 N.ar  295  HIS295     -0.2268
     93  CD2       19.9720   49.1120   78.1560 C.ar  295  HIS295      0.1154
     94  CE1       18.2940   50.0160   79.2460 C.ar  295  HIS295      0.1986
     95  NE2       19.0270   50.1180   78.1530 N.ar  295  HIS295     -0.2212
     96  N         19.3610   50.7780   84.1900 N.3   297  ASN297     -0.1240
     97  CA        18.4660   51.9030   84.1990 C.3   297  ASN297      0.1653
     98  C         18.6270   52.4750   85.5850 C.2   297  ASN297      0.2266
     99  O         18.1800   51.8820   86.5640 O.2   297  ASN297     -0.2867
    100  CB        17.0050   51.5500   83.8910 C.3   297  ASN297      0.1155
    101  CG        16.4420   50.4740   84.7850 C.2   297  ASN297      0.2627
    102  OD1       16.8400   49.3240   84.6620 O.2   297  ASN297     -0.2716
    103  ND2       15.5290   50.8390   85.6760 N.am  297  ASN297     -0.0877
    104  N         20.4260   55.3530   81.0040 N.3   307  LEU307     -0.1245
    105  CA        20.3380   53.9530   80.5710 C.3   307  LEU307      0.1561
    106  C         21.7090   53.6390   80.0280 C.2   307  LEU307      0.2260
    107  O         22.0650   54.1220   78.9430 O.2   307  LEU307     -0.2867
    108  CB        19.3060   53.7480   79.4650 C.3   307  LEU307      0.0270
    109  CG        17.8760   54.2040   79.8040 C.3   307  LEU307      0.0019
    110  CD1       16.9530   53.9410   78.5920 C.3   307  LEU307      0.0001
    111  CD2       17.3280   53.5180   81.0680 C.3   307  LEU307      0.0001
    112  N         15.0230   58.4030   72.5430 N.3   352  PHE352     -0.1241
    113  CA        14.7270   59.0920   73.7970 C.3   352  PHE352      0.1605
    114  C         14.8910   60.5820   73.7820 C.2   352  PHE352      0.2264
    115  O         14.7440   61.1980   74.8330 O.2   352  PHE352     -0.2867
    116  CB        15.5770   58.4730   74.9460 C.3   352  PHE352      0.0534
    117  CG        14.9700   57.2440   75.4950 C.ar  352  PHE352     -0.0203
    118  CD1       14.0520   57.3220   76.5160 C.ar  352  PHE352     -0.0042
    119  CD2       15.2390   56.0080   74.9490 C.ar  352  PHE352     -0.0042
    120  CE1       13.4420   56.1660   77.0170 C.ar  352  PHE352     -0.0003
    121  CE2       14.6440   54.8720   75.4500 C.ar  352  PHE352     -0.0003
    122  CZ        13.7440   54.9360   76.4400 C.ar  352  PHE352     -0.0000
    123  N         10.3950   56.2400   71.8060 N.3   358  TRP358     -0.1241
    124  CA        10.1760   55.5420   73.0700 C.3   358  TRP358      0.1605
    125  C          9.7670   56.5530   74.1390 C.2   358  TRP358      0.2264
    126  O          8.8140   56.3140   74.8910 O.2   358  TRP358     -0.2867
    127  CB        11.4510   54.8410   73.5470 C.3   358  TRP358      0.0550
    128  CG        11.8950   53.6330   72.7690 C.ar  358  TRP358      0.0003
    129  CD1       12.3020   53.5830   71.4600 C.ar  358  TRP358      0.0946
    130  CD2       12.0800   52.3170   73.2900 C.ar  358  TRP358      0.0152
    131  NE1       12.7010   52.3050   71.1280 N.ar  358  TRP358     -0.2442
    132  CE2       12.5770   51.5150   72.2430 C.ar  358  TRP358      0.0810
    133  CE3       11.8830   51.7370   74.5500 C.ar  358  TRP358      0.0012
    134  CZ2       12.8550   50.1510   72.4070 C.ar  358  TRP358      0.0191
    135  CZ3       12.1690   50.3790   74.7210 C.ar  358  TRP358      0.0001
    136  CH2       12.6500   49.6080   73.6560 C.ar  358  TRP358      0.0015
    137  N          6.0500   57.4240   77.1040 N.3   362  ASP362     -0.1239
    138  CA         5.9870   57.6890   78.5480 C.3   362  ASP362      0.1674
    139  C          5.2970   59.0040   78.8720 C.2   362  ASP362      0.2266
    140  O          4.9360   59.1970   80.0330 O.2   362  ASP362     -0.2867
    141  CB         7.3970   57.8080   79.1380 C.3   362  ASP362      0.1410
    142  CG         8.1540   56.5100   79.1790 C.2   362  ASP362      0.3668
    143  OD1        9.2200   56.4240   78.5560 O.co2 362  ASP362     -0.2456
    144  OD2        7.7800   55.5750   79.8820 O.co2 362  ASP362     -0.2456
@<TRIPOS>BOND
     1    82    81    2
     2   131   129   ar
     3   131   132   ar
     4   129   128   ar
     5    81    80    1
     6   123   124    1
     7   132   134   ar
     8   132   130   ar
     9   134   136   ar
    10   112   113    1
    11   128   130   ar
    12   128   127    1
    13    80    83    1
    14    80    79    1
    15   124   127    1
    16   124   125    1
    17    53    52    2
    18   130   133   ar
    19    85    83    1
    20    60    61    1
    21    83    84    1
    22   136   135   ar
    23   114   113    1
    24   114   115    2
    25   113   116    1
    26    62    61    1
    27    62    63    2
    28    52    51    1
    29   125   126    2
    30    61    64    1
    31   133   135   ar
    32   116   117    1
    33   119   121   ar
    34   119   117   ar
    35    51    54    1
    36    51    50    1
    37   121   122   ar
    38    54    55    1
    39    64    65    1
    40   117   118   ar
    41    56    55   ar
    42    56    58   ar
    43    65    67   ar
    44    65    66   ar
    45    55    57   ar
    46   122   120   ar
    47    67    69   ar
    48   118   120   ar
    49    66    68   ar
    50    58    59   ar
    51   137   138    1
    52    69    70   ar
    53    68    70   ar
    54    46    45    2
    55    57    59   ar
    56    95    93   ar
    57    95    94   ar
    58    93    91   ar
    59    48    47    1
    60    45    44    1
    61   138   139    1
    62   138   141    1
    63   143   142   ar
    64   110   109    1
    65   139   140    2
    66   107   106    2
    67   141   142    1
    68   142   144   ar
    69    94    92   ar
    70    91    90    1
    71    91    92   ar
    72   108   109    1
    73   108   105    1
    74    44    47    1
    75    44    43    1
    76    47    49    1
    77    90    87    1
    78   109   111    1
    79   106   105    1
    80    36    35    2
    81   105   104    1
    82    87    86    1
    83    87    88    1
    84    19    18   ar
    85    19    17   ar
    86    43    35   am
    87    42    40   ar
    88    42    41   ar
    89    35    34    1
    90    40    38   ar
    91    18    16   ar
    92    74    73    2
    93    77    76    1
    94    75    76    1
    95    75    72    1
    96    17    15   ar
    97    76    78    1
    98    41    39   ar
    99    88    89    2
   100    73    72    1
   101    38    39   ar
   102    38    37    1
   103    34    37    1
   104    34    33    1
   105    16    14   ar
   106    72    71    1
   107    31    30    2
   108     8     6   am
   109    15    14   ar
   110    14    13    1
   111     7     6    2
   112   100    97    1
   113   100   101    1
   114     6     5    1
   115    30    29    1
   116    96    97    1
   117    97    98    1
   118    23    22    2
   119    29    32    1
   120    29    28    1
   121   102   101    2
   122   101   103   am
   123    13    10    1
   124     5     2    1
   125    22    28   am
   126    22    21    1
   127    10     9    1
   128    10    11    1
   129    27    25   ar
   130    98    99    2
   131     4     3    2
   132     9     3   am
   133     3     2    1
   134    25    26   ar
   135    25    24    1
   136    12    11    2
   137     2     1    1
   138    24    21    1
   139    21    20    1
