@<TRIPOS>MOLECULE
tmp/1o7pA00.pdb
 144 139 0 0 0
SMALL
GASTEIGER

@<TRIPOS>ATOM
      1  N         10.6620   56.4140   87.2100 N.3   201  ASN201     -0.1225
      2  CA        10.4410   55.5290   86.0990 C.3   201  ASN201      0.1785
      3  C         11.7630   54.9270   85.6580 C.2   201  ASN201      0.2597
      4  O         11.8560   53.7020   85.4520 O.2   201  ASN201     -0.2718
      5  CB         9.7600   56.2970   84.9530 C.3   201  ASN201      0.1169
      6  CG         9.5700   55.4360   83.7040 C.2   201  ASN201      0.2627
      7  OD1        8.6630   54.5920   83.6560 O.2   201  ASN201     -0.2716
      8  ND2       10.4030   55.6420   82.7080 N.am  201  ASN201     -0.0877
      9  N         12.7830   55.7840   85.5330 N.am  202  PHE202     -0.1976
     10  CA        14.1280   55.3270   85.1810 C.3   202  PHE202      0.1639
     11  C         14.8220   54.5700   86.3270 C.2   202  PHE202      0.2290
     12  O         15.6460   53.6900   86.0720 O.2   202  PHE202     -0.2864
     13  CB        15.0370   56.4670   84.7190 C.3   202  PHE202      0.0560
     14  CG        14.9170   56.7770   83.2520 C.ar  202  PHE202     -0.0200
     15  CD1       13.7400   57.2580   82.7420 C.ar  202  PHE202     -0.0042
     16  CD2       15.9510   56.5410   82.3830 C.ar  202  PHE202     -0.0042
     17  CE1       13.5870   57.4950   81.3960 C.ar  202  PHE202     -0.0003
     18  CE2       15.8210   56.8310   81.0230 C.ar  202  PHE202     -0.0003
     19  CZ        14.6120   57.3090   80.5440 C.ar  202  PHE202     -0.0000
     20  N         11.6850   51.0520   86.9750 N.3   205  ASP205     -0.1225
     21  CA        10.4710   50.6290   86.3340 C.3   205  ASP205      0.1805
     22  C         10.6700   49.7460   85.1130 C.2   205  ASP205      0.2597
     23  O         10.5710   50.2130   83.9880 O.2   205  ASP205     -0.2718
     24  CB         9.6510   51.8460   85.9260 C.3   205  ASP205      0.1424
     25  CG         8.2220   51.4520   85.6800 C.2   205  ASP205      0.3668
     26  OD1        7.3390   52.3400   85.7240 O.co2 205  ASP205     -0.2456
     27  OD2        7.9790   50.2400   85.4550 O.co2 205  ASP205     -0.2456
     28  N         10.9550   48.4630   85.3160 N.am  206  ALA206     -0.1979
     29  CA        10.9850   47.5540   84.1590 C.3   206  ALA206      0.1597
     30  C          9.5890   47.0090   83.8420 C.2   206  ALA206      0.2287
     31  O          9.3470   46.5230   82.7340 O.2   206  ALA206     -0.2864
     32  CB        11.9730   46.4090   84.3730 C.3   206  ALA206      0.0319
     33  N          6.8410   48.4860   83.2750 N.3   208  HIS208     -0.1226
     34  CA         6.0780   49.2470   82.2460 C.3   208  HIS208      0.1752
     35  C          6.5440   49.0080   80.8180 C.2   208  HIS208      0.2595
     36  O          5.7980   49.2700   79.8600 O.2   208  HIS208     -0.2718
     37  CB         6.1200   50.7770   82.5500 C.3   208  HIS208      0.0759
     38  CG         7.2760   51.5110   81.9310 C.ar  208  HIS208      0.0818
     39  ND1        8.5790   51.3680   82.3650 N.ar  208  HIS208     -0.2268
     40  CD2        7.3180   52.4130   80.9160 C.ar  208  HIS208      0.1154
     41  CE1        9.3690   52.1410   81.6360 C.ar  208  HIS208      0.1986
     42  NE2        8.6280   52.7910   80.7540 N.ar  208  HIS208     -0.2212
     43  N          7.7640   48.4970   80.6650 N.am  209  VAL209     -0.1980
     44  CA         8.4110   48.4400   79.3440 C.3   209  VAL209      0.1595
     45  C          7.6070   47.6720   78.3060 C.2   209  VAL209      0.2287
     46  O          7.3560   48.1810   77.2100 O.2   209  VAL209     -0.2864
     47  CB         9.8490   47.9610   79.4450 C.3   209  VAL209      0.0276
     48  CG1       10.4590   47.7690   78.0380 C.3   209  VAL209      0.0022
     49  CG2       10.6780   49.0010   80.2630 C.3   209  VAL209      0.0022
     50  N          5.7190   50.4920   76.1590 N.3   213  HIS213     -0.1241
     51  CA         6.5260   50.5740   74.9350 C.3   213  HIS213      0.1621
     52  C          6.2250   49.4570   73.9260 C.2   213  HIS213      0.2264
     53  O          7.0170   49.2050   73.0270 O.2   213  HIS213     -0.2867
     54  CB         8.0140   50.6030   75.2780 C.3   213  HIS213      0.0745
     55  CG         8.4260   51.8010   76.0780 C.ar  213  HIS213      0.0817
     56  ND1        8.4800   53.0740   75.5380 N.ar  213  HIS213     -0.2268
     57  CD2        8.8040   51.9270   77.3750 C.ar  213  HIS213      0.1154
     58  CE1        8.8670   53.9290   76.4760 C.ar  213  HIS213      0.1986
     59  NE2        9.0970   53.2530   77.5880 N.ar  213  HIS213     -0.2212
     60  N         15.1080   43.8400   73.0590 N.3   224  PHE224     -0.1241
     61  CA        14.0620   43.5580   74.0190 C.3   224  PHE224      0.1605
     62  C         12.6910   43.3840   73.3860 C.2   224  PHE224      0.2264
     63  O         11.6930   43.2930   74.1010 O.2   224  PHE224     -0.2867
     64  CB        14.0400   44.6640   75.0460 C.3   224  PHE224      0.0534
     65  CG        15.3020   44.7460   75.8360 C.ar  224  PHE224     -0.0203
     66  CD1       15.8550   43.5880   76.3660 C.ar  224  PHE224     -0.0042
     67  CD2       15.9510   45.9550   76.0290 C.ar  224  PHE224     -0.0042
     68  CE1       17.0130   43.6350   77.0860 C.ar  224  PHE224     -0.0003
     69  CE2       17.1200   46.0100   76.7600 C.ar  224  PHE224     -0.0003
     70  CZ        17.6530   44.8460   77.2880 C.ar  224  PHE224     -0.0000
     71  N         19.5410   44.4100   83.4680 N.3   253  LEU253     -0.1245
     72  CA        18.9500   43.4760   82.5290 C.3   253  LEU253      0.1561
     73  C         20.1350   42.7910   81.8830 C.2   253  LEU253      0.2260
     74  O         20.7500   43.3310   80.9590 O.2   253  LEU253     -0.2867
     75  CB        18.1100   44.1840   81.4820 C.3   253  LEU253      0.0270
     76  CG        16.5780   44.0780   81.6090 C.3   253  LEU253      0.0019
     77  CD1       16.1540   44.2980   83.0590 C.3   253  LEU253      0.0001
     78  CD2       15.8910   45.0770   80.6840 C.3   253  LEU253      0.0001
     79  N         18.0090   49.7150   73.5750 N.3   260  VAL260     -0.1245
     80  CA        16.8050   50.0770   72.8170 C.3   260  VAL260      0.1561
     81  C         17.0850   50.2680   71.3410 C.2   260  VAL260      0.2260
     82  O         16.1600   50.4860   70.5700 O.2   260  VAL260     -0.2867
     83  CB        16.1750   51.3750   73.3610 C.3   260  VAL260      0.0252
     84  CG1       15.8750   51.2230   74.8020 C.3   260  VAL260      0.0019
     85  CG2       17.1030   52.5700   73.1180 C.3   260  VAL260      0.0019
     86  N         22.3940   46.0530   80.5220 N.3   295  HIS295     -0.1241
     87  CA        21.6490   47.3160   80.4530 C.3   295  HIS295      0.1621
     88  C         21.2100   47.7460   81.8280 C.2   295  HIS295      0.2264
     89  O         20.4600   47.0440   82.4930 O.2   295  HIS295     -0.2867
     90  CB        20.4510   47.0480   79.5650 C.3   295  HIS295      0.0745
     91  CG        19.7760   48.2580   79.0270 C.ar  295  HIS295      0.0817
     92  ND1       18.6600   48.8040   79.6250 N.ar  295  HIS295     -0.2268
     93  CD2       20.0050   48.9870   77.9050 C.ar  295  HIS295      0.1154
     94  CE1       18.2230   49.8160   78.8870 C.ar  295  HIS295      0.1986
     95  NE2       19.0350   49.9660   77.8520 N.ar  295  HIS295     -0.2212
     96  N         19.2900   50.6040   84.0010 N.3   297  ASN297     -0.1240
     97  CA        18.4060   51.7700   84.0110 C.3   297  ASN297      0.1653
     98  C         18.5380   52.3370   85.4120 C.2   297  ASN297      0.2266
     99  O         18.0730   51.7720   86.3850 O.2   297  ASN297     -0.2867
    100  CB        16.9610   51.4220   83.6230 C.3   297  ASN297      0.1155
    101  CG        16.3470   50.4050   84.4990 C.2   297  ASN297      0.2627
    102  OD1       16.6630   49.2180   84.4060 O.2   297  ASN297     -0.2716
    103  ND2       15.4010   50.8390   85.3360 N.am  297  ASN297     -0.0877
    104  N         20.5000   55.2160   80.8270 N.3   307  LEU307     -0.1245
    105  CA        20.3630   53.8600   80.3700 C.3   307  LEU307      0.1561
    106  C         21.7160   53.4670   79.8050 C.2   307  LEU307      0.2260
    107  O         22.0440   53.8610   78.6890 O.2   307  LEU307     -0.2867
    108  CB        19.3280   53.7100   79.2760 C.3   307  LEU307      0.0270
    109  CG        17.9040   54.1700   79.5430 C.3   307  LEU307      0.0019
    110  CD1       17.0430   53.9630   78.2940 C.3   307  LEU307      0.0001
    111  CD2       17.3210   53.4370   80.7530 C.3   307  LEU307      0.0001
    112  N         15.0650   58.2580   72.3320 N.3   352  PHE352     -0.1241
    113  CA        14.7840   58.9630   73.5760 C.3   352  PHE352      0.1605
    114  C         14.9000   60.4770   73.5640 C.2   352  PHE352      0.2264
    115  O         14.6940   61.1250   74.6160 O.2   352  PHE352     -0.2867
    116  CB        15.6230   58.3350   74.7090 C.3   352  PHE352      0.0534
    117  CG        14.9960   57.1280   75.2740 C.ar  352  PHE352     -0.0203
    118  CD1       14.1200   57.2470   76.3280 C.ar  352  PHE352     -0.0042
    119  CD2       15.1910   55.9030   74.7150 C.ar  352  PHE352     -0.0042
    120  CE1       13.4760   56.1490   76.8380 C.ar  352  PHE352     -0.0003
    121  CE2       14.5660   54.7920   75.2200 C.ar  352  PHE352     -0.0003
    122  CZ        13.7180   54.9030   76.2740 C.ar  352  PHE352     -0.0000
    123  N         10.3820   56.1370   71.5560 N.3   358  TRP358     -0.1241
    124  CA        10.1670   55.4700   72.8510 C.3   358  TRP358      0.1605
    125  C          9.7100   56.4660   73.9050 C.2   358  TRP358      0.2264
    126  O          8.7460   56.2040   74.6240 O.2   358  TRP358     -0.2867
    127  CB        11.4450   54.7910   73.4040 C.3   358  TRP358      0.0550
    128  CG        11.9220   53.6350   72.6420 C.ar  358  TRP358      0.0003
    129  CD1       12.3440   53.6030   71.3340 C.ar  358  TRP358      0.0946
    130  CD2       12.0900   52.3040   73.1490 C.ar  358  TRP358      0.0152
    131  NE1       12.7380   52.3260   70.9990 N.ar  358  TRP358     -0.2442
    132  CE2       12.5890   51.5120   72.0980 C.ar  358  TRP358      0.0810
    133  CE3       11.8860   51.7120   74.4010 C.ar  358  TRP358      0.0012
    134  CZ2       12.8850   50.1470   72.2610 C.ar  358  TRP358      0.0191
    135  CZ3       12.1800   50.3540   74.5650 C.ar  358  TRP358      0.0001
    136  CH2       12.6470   49.5900   73.5000 C.ar  358  TRP358      0.0015
    137  N          5.9460   57.3770   76.9090 N.3   362  ASP362     -0.1239
    138  CA         5.9010   57.6400   78.3540 C.3   362  ASP362      0.1674
    139  C          5.2570   58.9680   78.7260 C.2   362  ASP362      0.2266
    140  O          4.9230   59.1800   79.8980 O.2   362  ASP362     -0.2867
    141  CB         7.3090   57.6770   78.9380 C.3   362  ASP362      0.1410
    142  CG         7.9650   56.3320   79.0150 C.2   362  ASP362      0.3668
    143  OD1        9.0510   56.1990   78.4230 O.co2 362  ASP362     -0.2456
    144  OD2        7.4990   55.3840   79.6610 O.co2 362  ASP362     -0.2456
@<TRIPOS>BOND
     1    82    81    2
     2   131   129   ar
     3   131   132   ar
     4   129   128   ar
     5    81    80    1
     6   123   124    1
     7   132   134   ar
     8   132   130   ar
     9   134   136   ar
    10   112   113    1
    11   128   130   ar
    12   128   127    1
    13    80    83    1
    14    80    79    1
    15   124   127    1
    16   124   125    1
    17    53    52    2
    18    60    61    1
    19    85    83    1
    20   130   133   ar
    21    83    84    1
    22    62    61    1
    23    62    63    2
    24   136   135   ar
    25   114   113    1
    26   114   115    2
    27   113   116    1
    28   125   126    2
    29    52    51    1
    30    61    64    1
    31   133   135   ar
    32   116   117    1
    33   119   121   ar
    34   119   117   ar
    35    51    54    1
    36    51    50    1
    37    64    65    1
    38   121   122   ar
    39   117   118   ar
    40    54    55    1
    41    56    55   ar
    42    56    58   ar
    43    65    67   ar
    44    65    66   ar
    45    67    69   ar
    46    55    57   ar
    47   122   120   ar
    48   118   120   ar
    49    66    68   ar
    50    58    59   ar
    51    69    70   ar
    52   137   138    1
    53    68    70   ar
    54    46    45    2
    55    57    59   ar
    56    95    93   ar
    57    95    94   ar
    58    93    91   ar
    59    48    47    1
    60   110   109    1
    61    45    44    1
    62   138   139    1
    63   138   141    1
    64   143   142   ar
    65   107   106    2
    66   139   140    2
    67    94    92   ar
    68   141   142    1
    69   142   144   ar
    70    91    90    1
    71    91    92   ar
    72   108   109    1
    73   108   105    1
    74    44    47    1
    75    44    43    1
    76    47    49    1
    77   109   111    1
    78    90    87    1
    79   106   105    1
    80    36    35    2
    81   105   104    1
    82    87    86    1
    83    87    88    1
    84    19    18   ar
    85    19    17   ar
    86    43    35   am
    87    78    76    1
    88    42    40   ar
    89    42    41   ar
    90    35    34    1
    91    40    38   ar
    92    74    73    2
    93    18    16   ar
    94    17    15   ar
    95    75    76    1
    96    75    72    1
    97    76    77    1
    98    41    39   ar
    99    88    89    2
   100    73    72    1
   101    38    39   ar
   102    38    37    1
   103    34    37    1
   104    34    33    1
   105    16    14   ar
   106    72    71    1
   107     8     6   am
   108    31    30    2
   109    15    14   ar
   110    14    13    1
   111   100    97    1
   112   100   101    1
   113     7     6    2
   114     6     5    1
   115    30    29    1
   116    23    22    2
   117    96    97    1
   118    97    98    1
   119    29    32    1
   120    29    28    1
   121   102   101    2
   122   101   103   am
   123    13    10    1
   124     5     2    1
   125    22    28   am
   126    22    21    1
   127    10     9    1
   128    10    11    1
   129    98    99    2
   130     4     3    2
   131    27    25   ar
   132     9     3   am
   133     3     2    1
   134    25    26   ar
   135    25    24    1
   136    24    21    1
   137    12    11    2
   138     2     1    1
   139    21    20    1
