@<TRIPOS>MOLECULE
tmp/1o84A00.pdb
 76 69 0 0 0
SMALL
GASTEIGER

@<TRIPOS>ATOM
      1  N          9.9810   34.8610   13.3710 N.3    25  VAL25      -0.1231
      2  CA        10.6610   33.7700   12.6880 C.3    25  VAL25       0.1692
      3  C         10.5610   33.9490   11.1540 C.2    25  VAL25       0.2592
      4  O         11.5420   33.7400   10.3990 O.2    25  VAL25      -0.2718
      5  CB        10.1290   32.3780   13.1340 C.3    25  VAL25       0.0266
      6  CG1       10.2880   31.3680   12.0020 C.3    25  VAL25       0.0020
      7  CG2       10.8970   31.8370   14.3080 C.3    25  VAL25       0.0020
      8  N          9.4100   34.4000   10.6950 N.am   26  THR26      -0.1953
      9  CA         9.2860   34.5740    9.2640 C.3    26  THR26       0.1897
     10  C         10.1980   35.6510    8.7430 C.2    26  THR26       0.2313
     11  O         10.5650   35.6130    7.5690 O.2    26  THR26      -0.2863
     12  CB         7.8470   34.8590    8.7810 C.3    26  THR26       0.1794
     13  OG1        7.4370   36.1120    9.3170 O.3    26  THR26      -0.2208
     14  CG2        6.8480   33.8450    9.3440 C.3    26  THR26       0.0378
     15  N         13.5580   34.0210    8.4250 N.3    29  VAL29      -0.1245
     16  CA        13.4800   33.0490    7.3340 C.3    29  VAL29       0.1561
     17  C         13.5670   33.7460    5.9920 C.2    29  VAL29       0.2260
     18  O         14.2880   33.2990    5.1640 O.2    29  VAL29      -0.2867
     19  CB        12.2940   31.9710    7.5130 C.3    29  VAL29       0.0252
     20  CG1       12.1760   31.0010    6.3290 C.3    29  VAL29       0.0019
     21  CG2       12.5220   31.1450    8.7600 C.3    29  VAL29       0.0019
     22  N         16.7550   33.0270    3.6260 N.3    33  THR33      -0.1218
     23  CA        16.3770   32.4390    2.3740 C.3    33  THR33       0.1862
     24  C         16.8710   33.2470    1.1770 C.2    33  THR33       0.2287
     25  O         17.2250   32.6860    0.1430 O.2    33  THR33      -0.2866
     26  CB        14.8730   32.3810    2.4010 C.3    33  THR33       0.1770
     27  OG1       14.4770   31.0490    2.7240 O.3    33  THR33      -0.2211
     28  CG2       14.2740   32.6140    1.0680 C.3    33  THR33       0.0375
     29  N         20.0670   28.9090    3.2580 N.3    40  LEU40      -0.1245
     30  CA        19.3610   27.6300    3.2730 C.3    40  LEU40       0.1561
     31  C         20.1120   26.5560    4.1290 C.2    40  LEU40       0.2260
     32  O         19.5270   25.8780    4.9730 O.2    40  LEU40      -0.2867
     33  CB        19.0510   27.1690    1.8570 C.3    40  LEU40       0.0270
     34  CG        18.0520   28.0100    1.0430 C.3    40  LEU40       0.0019
     35  CD1       18.0780   27.5500   -0.3730 C.3    40  LEU40       0.0001
     36  CD2       16.6030   28.0470    1.5080 C.3    40  LEU40       0.0001
     37  N         19.4430   27.4790    7.7390 N.3    43  LEU43      -0.1231
     38  CA        18.0960   27.0080    8.0190 C.3    43  LEU43       0.1693
     39  C         18.0710   25.4790    8.2050 C.2    43  LEU43       0.2591
     40  O         17.5400   24.9760    9.2080 O.2    43  LEU43      -0.2718
     41  CB        17.1060   27.4470    6.9340 C.3    43  LEU43       0.0284
     42  CG        16.7530   28.9290    6.9120 C.3    43  LEU43       0.0019
     43  CD1       16.1580   29.2880    5.6140 C.3    43  LEU43       0.0001
     44  CD2       15.8040   29.2330    8.0140 C.3    43  LEU43       0.0001
     45  N         18.6740   24.7380    7.2810 N.am   44  ALA44      -0.1980
     46  CA        18.7360   23.3020    7.4610 C.3    44  ALA44       0.1597
     47  C         19.4150   22.9110    8.7930 C.2    44  ALA44       0.2287
     48  O         18.9790   21.9720    9.4670 O.2    44  ALA44      -0.2864
     49  CB        19.4380   22.6480    6.2760 C.3    44  ALA44       0.0319
     50  N         17.3590   22.2620   12.1760 N.3    47  GLY47      -0.1225
     51  CA        16.7030   20.9840   12.1980 C.3    47  GLY47       0.1811
     52  C         15.2460   21.2340   12.4040 C.2    47  GLY47       0.2280
     53  O         14.5740   21.8020   11.5380 O.2    47  GLY47      -0.2866
     54  N         14.0960   22.6340   15.4750 N.3    49  GLU49      -0.1231
     55  CA        13.9940   23.9110   16.1720 C.3    49  GLU49       0.1699
     56  C         13.5710   25.0310   15.1970 C.2    49  GLU49       0.2593
     57  O         13.6140   24.8700   13.9530 O.2    49  GLU49      -0.2718
     58  CB        15.3440   24.2770   16.7700 C.3    49  GLU49       0.0402
     59  CG        15.4730   24.0480   18.2510 C.3    49  GLU49       0.1161
     60  CD        16.8470   24.4220   18.7410 C.2    49  GLU49       0.3649
     61  OE1       17.8740   24.0230   18.1150 O.co2  49  GLU49      -0.2457
     62  OE2       16.8950   25.1210   19.7600 O.co2  49  GLU49      -0.2457
     63  N         13.1520   26.1520   15.7750 N.am   50  SER50      -0.1938
     64  CA        12.9120   27.3610   15.0120 C.3    50  SER50       0.2055
     65  C         14.2860   27.9750   14.8980 C.2    50  SER50       0.2642
     66  O         15.1400   27.7740   15.7770 O.2    50  SER50      -0.2714
     67  CB        11.9740   28.3210   15.7500 C.3    50  SER50       0.2130
     68  OG        12.7580   29.1930   16.5560 O.3    50  SER50      -0.2179
     69  N         14.4940   28.7090   13.8100 N.am   51  ILE51      -0.1977
     70  CA        15.7860   29.3130   13.5460 C.3    51  ILE51       0.1596
     71  C         16.1200   30.3370   14.6230 C.2    51  ILE51       0.2287
     72  O         17.2820   30.4550   15.0560 O.2    51  ILE51      -0.2864
     73  CB        15.8540   29.9010   12.0830 C.3    51  ILE51       0.0276
     74  CG1       17.2560   30.4370   11.7590 C.3    51  ILE51       0.0022
     75  CG2       14.7040   30.8980   11.8020 C.3    51  ILE51       0.0022
     76  CD1       18.3240   29.4170   11.7210 C.3    51  ILE51       0.0001
@<TRIPOS>BOND
     1    35    34    1
     2    25    24    2
     3    34    36    1
     4    34    33    1
     5    28    26    1
     6    24    23    1
     7    33    30    1
     8    23    26    1
     9    23    22    1
    10    26    27    1
    11    29    30    1
    12    30    31    1
    13    31    32    2
    14    18    17    2
    15    43    42    1
    16    17    16    1
    17    49    46    1
    18    20    19    1
    19    42    41    1
    20    42    44    1
    21    41    38    1
    22    45    46    1
    23    45    39   am
    24    16    19    1
    25    16    15    1
    26    46    47    1
    27    19    21    1
    28    11    10    2
    29    37    38    1
    30    38    39    1
    31    39    40    2
    32    10     9    1
    33    12     9    1
    34    12    13    1
    35    12    14    1
    36    47    48    2
    37     9     8    1
    38     4     3    2
    39     8     3   am
    40     3     2    1
    41    53    52    2
    42    76    74    1
    43    74    73    1
    44    75    73    1
    45     6     5    1
    46    73    70    1
    47    50    51    1
    48    51    52    1
    49     2     5    1
    50     2     1    1
    51     5     7    1
    52    70    69    1
    53    70    71    1
    54    69    65   am
    55    57    56    2
    56    71    72    2
    57    65    64    1
    58    65    66    2
    59    64    67    1
    60    64    63    1
    61    56    63   am
    62    56    55    1
    63    54    55    1
    64    67    68    1
    65    55    58    1
    66    58    59    1
    67    61    60   ar
    68    59    60    1
    69    60    62   ar
