@<TRIPOS>MOLECULE
tmp/1o86A00.pdb
 267 260 0 0 0
SMALL
GASTEIGER

@<TRIPOS>ATOM
      1  N         37.4260   34.4830   64.0510 N.3    27  ASN27      -0.1240
      2  CA        37.1620   34.2000   62.6470 C.3    27  ASN27       0.1653
      3  C         38.1920   33.1890   62.1420 C.2    27  ASN27       0.2266
      4  O         37.8630   32.2700   61.3930 O.2    27  ASN27      -0.2867
      5  CB        37.2240   35.5060   61.8450 C.3    27  ASN27       0.1155
      6  CG        36.7060   35.3530   60.4330 C.2    27  ASN27       0.2627
      7  OD1       35.9080   34.4590   60.1400 O.2    27  ASN27      -0.2716
      8  ND2       37.1440   36.2430   59.5480 N.am   27  ASN27      -0.0877
      9  N         37.6280   29.3600   60.6220 N.3    31  ASN31      -0.1240
     10  CA        38.1140   29.0290   59.2860 C.3    31  ASN31       0.1653
     11  C         39.0890   27.8520   59.2950 C.2    31  ASN31       0.2266
     12  O         39.1490   27.0840   58.3320 O.2    31  ASN31      -0.2867
     13  CB        38.7980   30.2510   58.6550 C.3    31  ASN31       0.1155
     14  CG        37.8380   31.1100   57.8530 C.2    31  ASN31       0.2627
     15  OD1       37.8290   31.0670   56.6240 O.2    31  ASN31      -0.2716
     16  ND2       37.0180   31.8920   58.5460 N.am   31  ASN31      -0.0877
     17  N         29.0080   30.0030   53.8120 N.3   104  GLU104     -0.1245
     18  CA        30.4300   29.6860   53.7960 C.3   104  GLU104      0.1567
     19  C         30.6920   28.2330   54.1710 C.2   104  GLU104      0.2260
     20  O         31.4970   27.5510   53.5330 O.2   104  GLU104     -0.2867
     21  CB        31.1970   30.5940   54.7570 C.3   104  GLU104      0.0388
     22  CG        32.6750   30.2540   54.8190 C.3   104  GLU104      0.1160
     23  CD        33.3590   30.3970   53.4700 C.2   104  GLU104      0.3649
     24  OE1       33.6140   31.5520   53.0590 O.co2 104  GLU104     -0.2457
     25  OE2       33.6310   29.3610   52.8170 O.co2 104  GLU104     -0.2457
     26  N         38.9140   20.8370   46.6440 N.3   123  GLU123     -0.1245
     27  CA        40.3660   20.8600   46.5900 C.3   123  GLU123      0.1567
     28  C         40.9160   19.7180   47.4410 C.2   123  GLU123      0.2260
     29  O         40.5140   19.5420   48.5900 O.2   123  GLU123     -0.2867
     30  CB        40.8940   22.2080   47.0990 C.3   123  GLU123      0.0388
     31  CG        40.2610   23.4000   46.3870 C.3   123  GLU123      0.1160
     32  CD        41.0090   24.7040   46.6050 C.2   123  GLU123      0.3649
     33  OE1       41.1030   25.1650   47.7640 O.co2 123  GLU123     -0.2457
     34  OE2       41.5040   25.2700   45.6060 O.co2 123  GLU123     -0.2457
     35  N         35.7090   26.5880   36.8770 N.3   240  TRP240     -0.1241
     36  CA        34.9280   27.7350   36.4180 C.3   240  TRP240      0.1605
     37  C         35.3790   28.2450   35.0540 C.2   240  TRP240      0.2264
     38  O         34.8400   29.2330   34.5440 O.2   240  TRP240     -0.2867
     39  CB        35.0200   28.8560   37.4560 C.3   240  TRP240      0.0550
     40  CG        34.6290   28.3670   38.8080 C.ar  240  TRP240      0.0003
     41  CD1       33.3600   28.1530   39.2660 C.ar  240  TRP240      0.0946
     42  CD2       35.5090   27.8790   39.8250 C.ar  240  TRP240      0.0152
     43  NE1       33.3960   27.5500   40.4980 N.ar  240  TRP240     -0.2442
     44  CE2       34.7020   27.3700   40.8660 C.ar  240  TRP240      0.0810
     45  CE3       36.9050   27.8150   39.9540 C.ar  240  TRP240      0.0012
     46  CZ2       35.2430   26.8050   42.0280 C.ar  240  TRP240      0.0191
     47  CZ3       37.4460   27.2510   41.1060 C.ar  240  TRP240      0.0001
     48  CH2       36.6130   26.7520   42.1290 C.ar  240  TRP240      0.0015
     49  N         37.8620   29.8040   34.4100 N.3   242  GLN242     -0.1245
     50  CA        38.3460   31.1680   34.5940 C.3   242  GLN242      0.1566
     51  C         39.7940   31.3020   34.1380 C.2   242  GLN242      0.2260
     52  O         40.2490   32.3980   33.8090 O.2   242  GLN242     -0.2867
     53  CB        38.2010   31.6030   36.0570 C.3   242  GLN242      0.0367
     54  CG        39.0530   30.8380   37.0520 C.3   242  GLN242      0.0905
     55  CD        38.6620   31.1390   38.4880 C.2   242  GLN242      0.2608
     56  OE1       37.5080   30.9510   38.8760 O.2   242  GLN242     -0.2717
     57  NE2       39.6210   31.6100   39.2830 N.am  242  GLN242     -0.0878
     58  N         40.0550   27.4820   50.7160 N.3   314  HIS314     -0.1226
     59  CA        40.2690   28.6280   49.8290 C.3   314  HIS314      0.1752
     60  C         41.3070   29.6020   50.3880 C.2   314  HIS314      0.2596
     61  O         41.0580   30.2930   51.3750 O.2   314  HIS314     -0.2718
     62  CB        38.9570   29.3760   49.5840 C.3   314  HIS314      0.0759
     63  CG        39.0270   30.3450   48.4470 C.ar  314  HIS314      0.0818
     64  ND1       38.6650   30.0090   47.1590 N.ar  314  HIS314     -0.2268
     65  CD2       39.4760   31.6210   48.3900 C.ar  314  HIS314      0.1154
     66  CE1       38.8880   31.0360   46.3600 C.ar  314  HIS314      0.1986
     67  NE2       39.3810   32.0280   47.0810 N.ar  314  HIS314     -0.2212
     68  N         42.4650   29.6530   49.7380 N.am  315  ALA315     -0.1966
     69  CA        43.5730   30.5140   50.1520 C.3   315  ALA315      0.1728
     70  C         43.2160   31.9650   50.4780 C.2   315  ALA315      0.2617
     71  O         42.4950   32.6260   49.7330 O.2   315  ALA315     -0.2715
     72  CB        44.6630   30.4920   49.0810 C.3   315  ALA315      0.0334
     73  N         43.7390   32.4560   51.5960 N.am  316  SER316     -0.1936
     74  CA        43.5080   33.8370   52.0030 C.3   316  SER316      0.2055
     75  C         44.6020   34.3240   52.9540 C.2   316  SER316      0.2643
     76  O         45.2630   33.5250   53.6290 O.2   316  SER316     -0.2714
     77  CB        42.1230   33.9880   52.6510 C.3   316  SER316      0.2130
     78  OG        41.9700   33.1300   53.7650 O.3   316  SER316     -0.2179
     79  N         44.8000   35.6400   52.9790 N.am  317  ALA317     -0.1963
     80  CA        45.8030   36.2800   53.8250 C.3   317  ALA317      0.1728
     81  C         45.0640   37.0330   54.9200 C.2   317  ALA317      0.2616
     82  O         44.0170   37.6370   54.6720 O.2   317  ALA317     -0.2715
     83  CB        46.6530   37.2390   53.0030 C.3   317  ALA317      0.0334
     84  N         45.6210   37.0140   56.1240 N.am  318  TRP318     -0.1974
     85  CA        44.9810   37.6410   57.2720 C.3   318  TRP318      0.1640
     86  C         45.8050   38.6920   58.0140 C.2   318  TRP318      0.2290
     87  O         46.9890   38.4990   58.2980 O.2   318  TRP318     -0.2864
     88  CB        44.5590   36.5470   58.2630 C.3   318  TRP318      0.0576
     89  CG        43.5750   35.5560   57.7070 C.ar  318  TRP318      0.0006
     90  CD1       43.7170   34.7890   56.5810 C.ar  318  TRP318      0.0946
     91  CD2       42.2970   35.2190   58.2610 C.ar  318  TRP318      0.0152
     92  NE1       42.6020   33.9970   56.4000 N.ar  318  TRP318     -0.2442
     93  CE2       41.7160   34.2410   57.4160 C.ar  318  TRP318      0.0810
     94  CE3       41.5840   35.6490   59.3910 C.ar  318  TRP318      0.0012
     95  CZ2       40.4540   33.6870   57.6680 C.ar  318  TRP318      0.0191
     96  CZ3       40.3270   35.0950   59.6420 C.ar  318  TRP318      0.0001
     97  CH2       39.7770   34.1250   58.7820 C.ar  318  TRP318      0.0015
     98  N         50.7740   26.1710   39.7260 N.3   337  GLU337     -0.1231
     99  CA        49.5840   26.9870   39.9270 C.3   337  GLU337      0.1699
    100  C         49.4990   27.5250   41.3570 C.2   337  GLU337      0.2592
    101  O         49.1940   28.6970   41.5660 O.2   337  GLU337     -0.2718
    102  CB        48.3240   26.1850   39.5890 C.3   337  GLU337      0.0402
    103  CG        47.1260   27.0590   39.2570 C.3   337  GLU337      0.1161
    104  CD        45.9170   26.2660   38.7980 C.2   337  GLU337      0.3649
    105  OE1       46.0940   25.1390   38.2930 O.co2 337  GLU337     -0.2457
    106  OE2       44.7870   26.7800   38.9270 O.co2 337  GLU337     -0.2457
    107  N         49.7750   26.6750   42.3400 N.am  338  ASP338     -0.1974
    108  CA        49.7170   27.1070   43.7310 C.3   338  ASP338      0.1709
    109  C         50.9440   27.9260   44.1380 C.2   338  ASP338      0.2293
    110  O         50.9220   28.6350   45.1460 O.2   338  ASP338     -0.2864
    111  CB        49.5410   25.8990   44.6530 C.3   338  ASP338      0.1436
    112  CG        48.2470   25.9580   45.4380 C.2   338  ASP338      0.3671
    113  OD1       47.3010   26.6200   44.9630 O.co2 338  ASP338     -0.2456
    114  OD2       48.1660   25.3400   46.5190 O.co2 338  ASP338     -0.2456
    115  N         49.7630   31.2320   43.4840 N.3   341  VAL341     -0.1245
    116  CA        48.8130   31.6030   44.5330 C.3   341  VAL341      0.1561
    117  C         49.5610   32.0340   45.7960 C.2   341  VAL341      0.2260
    118  O         49.1940   33.0150   46.4450 O.2   341  VAL341     -0.2867
    119  CB        47.8700   30.4250   44.9020 C.3   341  VAL341      0.0252
    120  CG1       47.0060   30.8050   46.1140 C.3   341  VAL341      0.0019
    121  CG2       46.9820   30.0700   43.7110 C.3   341  VAL341      0.0019
    122  N         50.6200   35.4090   45.3420 N.3   344  HIS344     -0.1226
    123  CA        49.4470   36.2760   45.3910 C.3   344  HIS344      0.1752
    124  C         49.1360   36.6260   46.8450 C.2   344  HIS344      0.2595
    125  O         48.9840   37.8020   47.1900 O.2   344  HIS344     -0.2718
    126  CB        48.2350   35.5700   44.7750 C.3   344  HIS344      0.0759
    127  CG        46.9710   36.3700   44.8490 C.ar  344  HIS344      0.0818
    128  ND1       46.6470   37.3390   43.9230 N.ar  344  HIS344     -0.2268
    129  CD2       45.9720   36.3760   45.7660 C.ar  344  HIS344      0.1154
    130  CE1       45.5040   37.9080   44.2670 C.ar  344  HIS344      0.1986
    131  NE2       45.0750   37.3410   45.3810 N.ar  344  HIS344     -0.2212
    132  N         49.0490   35.5990   47.6900 N.am  345  GLU345     -0.1979
    133  CA        48.7420   35.7880   49.1050 C.3   345  GLU345      0.1602
    134  C         49.8390   36.5350   49.8500 C.2   345  GLU345      0.2287
    135  O         49.5510   37.3460   50.7260 O.2   345  GLU345     -0.2864
    136  CB        48.4890   34.4400   49.7820 C.3   345  GLU345      0.0415
    137  CG        47.3220   33.6500   49.2050 C.3   345  GLU345      0.1163
    138  CD        46.0140   34.4220   49.2400 C.2   345  GLU345      0.3649
    139  OE1       45.8330   35.2500   50.1590 O.co2 345  GLU345     -0.2457
    140  OE2       45.1590   34.1880   48.3590 O.co2 345  GLU345     -0.2457
    141  N         49.4990   40.1460   49.6390 N.3   348  HIS348     -0.1241
    142  CA        48.5550   40.7320   50.5950 C.3   348  HIS348      0.1621
    143  C         49.2710   41.0030   51.9160 C.2   348  HIS348      0.2264
    144  O         49.1220   42.0710   52.5120 O.2   348  HIS348     -0.2867
    145  CB        47.3820   39.7840   50.8640 C.3   348  HIS348      0.0745
    146  CG        46.3850   39.7110   49.7520 C.ar  348  HIS348      0.0817
    147  ND1       45.7830   40.8300   49.2140 N.ar  348  HIS348     -0.2268
    148  CD2       45.8420   38.6480   49.1120 C.ar  348  HIS348      0.1154
    149  CE1       44.9120   40.4580   48.2940 C.ar  348  HIS348      0.1986
    150  NE2       44.9280   39.1400   48.2130 N.ar  348  HIS348     -0.2212
    151  N         45.1060   43.2410   45.3390 N.3   372  GLU372     -0.1245
    152  CA        45.1440   41.9910   44.5860 C.3   372  GLU372      0.1567
    153  C         46.3200   41.8970   43.6070 C.2   372  GLU372      0.2260
    154  O         46.8150   40.8070   43.3230 O.2   372  GLU372     -0.2867
    155  CB        43.8380   41.8190   43.8010 C.3   372  GLU372      0.0388
    156  CG        42.5650   41.7550   44.6450 C.3   372  GLU372      0.1160
    157  CD        42.6140   40.6430   45.6770 C.2   372  GLU372      0.3649
    158  OE1       43.2260   39.5980   45.3760 O.co2 372  GLU372     -0.2457
    159  OE2       42.0440   40.8090   46.7780 O.co2 372  GLU372     -0.2457
    160  N         50.7670   39.2150   42.3240 N.3   376  ASP376     -0.1239
    161  CA        50.7420   38.8050   40.9230 C.3   376  ASP376      0.1674
    162  C         51.8850   39.4210   40.1250 C.2   376  ASP376      0.2266
    163  O         52.4370   38.7820   39.2240 O.2   376  ASP376     -0.2867
    164  CB        49.3980   39.1810   40.2820 C.3   376  ASP376      0.1410
    165  CG        48.2610   38.2590   40.7140 C.2   376  ASP376      0.3668
    166  OD1       48.3210   37.7060   41.8310 O.co2 376  ASP376     -0.2456
    167  OD2       47.2930   38.0980   39.9460 O.co2 376  ASP376     -0.2456
    168  N         41.1100   34.9370   31.8340 N.3   414  PHE414     -0.1241
    169  CA        40.5000   35.4260   33.0670 C.3   414  PHE414      0.1605
    170  C         39.7650   36.7630   32.9310 C.2   414  PHE414      0.2264
    171  O         38.8090   37.0220   33.6620 O.2   414  PHE414     -0.2867
    172  CB        41.5740   35.5600   34.1490 C.3   414  PHE414      0.0534
    173  CG        41.0270   35.8460   35.5230 C.ar  414  PHE414     -0.0203
    174  CD1       40.3100   34.8730   36.2220 C.ar  414  PHE414     -0.0042
    175  CD2       41.2560   37.0750   36.1340 C.ar  414  PHE414     -0.0042
    176  CE1       39.8340   35.1220   37.5100 C.ar  414  PHE414     -0.0003
    177  CE2       40.7880   37.3320   37.4140 C.ar  414  PHE414     -0.0003
    178  CZ        40.0760   36.3550   38.1070 C.ar  414  PHE414     -0.0000
    179  N         30.7520   29.0520   43.0640 N.3   468  LYS468     -0.1231
    180  CA        31.9920   29.8240   42.9840 C.3   468  LYS468      0.1693
    181  C         32.1990   30.4840   44.3530 C.2   468  LYS468      0.2592
    182  O         31.3740   31.2800   44.8030 O.2   468  LYS468     -0.2718
    183  CB        31.8910   30.8840   41.8780 C.3   468  LYS468      0.0285
    184  CG        33.1090   31.8050   41.7720 C.3   468  LYS468      0.0035
    185  CD        34.3990   31.0220   41.5090 C.3   468  LYS468      0.0206
    186  CE        35.6180   31.9460   41.5400 C.3   468  LYS468      0.1093
    187  NZ        36.9090   31.2100   41.4070 N.3   468  LYS468     -0.1314
    188  N         33.3050   30.1370   45.0040 N.am  469  PHE469     -0.1962
    189  CA        33.6370   30.6320   46.3430 C.3   469  PHE469      0.1771
    190  C         33.1460   32.0280   46.7340 C.2   469  PHE469      0.2619
    191  O         32.4130   32.1830   47.7140 O.2   469  PHE469     -0.2715
    192  CB        35.1520   30.5800   46.5610 C.3   469  PHE469      0.0574
    193  CG        35.5910   31.1330   47.8900 C.ar  469  PHE469     -0.0200
    194  CD1       35.4900   30.3630   49.0480 C.ar  469  PHE469     -0.0042
    195  CD2       36.0820   32.4350   47.9900 C.ar  469  PHE469     -0.0042
    196  CE1       35.8730   30.8830   50.2890 C.ar  469  PHE469     -0.0003
    197  CE2       36.4650   32.9610   49.2230 C.ar  469  PHE469     -0.0003
    198  CZ        36.3600   32.1820   50.3760 C.ar  469  PHE469     -0.0000
    199  N         33.5640   33.0350   45.9730 N.am  470  HIS470     -0.1973
    200  CA        33.2300   34.4300   46.2570 C.3   470  HIS470      0.1656
    201  C         31.7540   34.7910   46.3890 C.2   470  HIS470      0.2291
    202  O         31.4140   35.7740   47.0530 O.2   470  HIS470     -0.2864
    203  CB        33.8990   35.3300   45.2160 C.3   470  HIS470      0.0771
    204  CG        35.3800   35.1310   45.1290 C.ar  470  HIS470      0.0820
    205  ND1       35.9450   33.9520   44.6940 N.ar  470  HIS470     -0.2267
    206  CD2       36.4120   35.9440   45.4600 C.ar  470  HIS470      0.1154
    207  CE1       37.2620   34.0450   44.7620 C.ar  470  HIS470      0.1986
    208  NE2       37.5700   35.2430   45.2230 N.ar  470  HIS470     -0.2212
    209  N         30.6110   33.4330   49.8500 N.3   473  SER473     -0.1217
    210  CA        31.4880   34.0900   50.8170 C.3   473  SER473      0.1889
    211  C         31.3320   35.6010   50.8110 C.2   473  SER473      0.2288
    212  O         31.9460   36.2940   51.6170 O.2   473  SER473     -0.2866
    213  CB        32.9500   33.7340   50.5500 C.3   473  SER473      0.2089
    214  OG        33.1880   32.3700   50.8420 O.3   473  SER473     -0.2183
    215  N         32.4300   37.9780   48.7680 N.3   475  VAL475     -0.1245
    216  CA        33.6720   38.7140   48.5290 C.3   475  VAL475      0.1561
    217  C         33.5500   39.3470   47.1390 C.2   475  VAL475      0.2260
    218  O         33.3560   38.6370   46.1490 O.2   475  VAL475     -0.2867
    219  CB        34.9110   37.7860   48.5330 C.3   475  VAL475      0.0252
    220  CG1       36.1690   38.5940   48.1990 C.3   475  VAL475      0.0019
    221  CG2       35.0580   37.1050   49.8880 C.3   475  VAL475      0.0019
    222  N         34.1790   40.8130   43.4690 N.3   477  TYR477     -0.1241
    223  CA        35.0500   40.2340   42.4520 C.3   477  TYR477      0.1605
    224  C         35.7060   41.1820   41.4520 C.2   477  TYR477      0.2264
    225  O         36.7280   40.8390   40.8650 O.2   477  TYR477     -0.2867
    226  CB        34.2820   39.1680   41.6610 C.3   477  TYR477      0.0534
    227  CG        35.1550   38.0190   41.2210 C.ar  477  TYR477     -0.0201
    228  CD1       35.4960   37.0080   42.1190 C.ar  477  TYR477     -0.0009
    229  CD2       35.7050   37.9780   39.9350 C.ar  477  TYR477     -0.0009
    230  CE1       36.3670   35.9850   41.7590 C.ar  477  TYR477      0.0417
    231  CE2       36.5890   36.9480   39.5620 C.ar  477  TYR477      0.0417
    232  CZ        36.9130   35.9600   40.4860 C.ar  477  TYR477      0.1957
    233  OH        37.7940   34.9550   40.1600 O.3   477  TYR477     -0.2866
    234  N         37.5490   43.5080   41.8210 N.3   479  ARG479     -0.1231
    235  CA        38.9280   43.7750   42.2170 C.3   479  ARG479      0.1694
    236  C         39.9100   42.9200   41.3960 C.2   479  ARG479      0.2592
    237  O         41.0490   43.3310   41.1510 O.2   479  ARG479     -0.2718
    238  CB        39.1060   43.4670   43.7080 C.3   479  ARG479      0.0321
    239  CG        38.6420   42.0580   44.1030 C.3   479  ARG479      0.0489
    240  CD        38.6290   41.8610   45.6200 C.3   479  ARG479      0.2205
    241  NE        37.8150   42.8810   46.2740 N.pl3 479  ARG479     -0.0865
    242  CZ        37.5620   42.9280   47.5770 C.cat 479  ARG479      0.5346
    243  NH1       38.0590   42.0020   48.3890 N.pl3 479  ARG479      0.1354
    244  NH2       36.8160   43.9090   48.0710 N.pl3 479  ARG479      0.1354
    245  N         39.4680   41.7390   40.9670 N.am  480  TYR480     -0.1976
    246  CA        40.3340   40.8440   40.1950 C.3   480  TYR480      0.1639
    247  C         40.4720   41.2860   38.7460 C.2   480  TYR480      0.2290
    248  O         41.5180   41.0830   38.1220 O.2   480  TYR480     -0.2864
    249  CB        39.8150   39.4010   40.2640 C.3   480  TYR480      0.0560
    250  CG        39.7590   38.8650   41.6790 C.ar  480  TYR480     -0.0198
    251  CD1       38.5340   38.6020   42.2970 C.ar  480  TYR480     -0.0009
    252  CD2       40.9300   38.6700   42.4210 C.ar  480  TYR480     -0.0009
    253  CE1       38.4710   38.1610   43.6200 C.ar  480  TYR480      0.0417
    254  CE2       40.8810   38.2290   43.7470 C.ar  480  TYR480      0.0417
    255  CZ        39.6450   37.9770   44.3390 C.ar  480  TYR480      0.1957
    256  OH        39.5720   37.5610   45.6480 O.3   480  TYR480     -0.2866
    257  N         44.1080   42.3580   37.2330 N.3   484  PHE484     -0.1241
    258  CA        44.7600   41.8050   36.0540 C.3   484  PHE484      0.1605
    259  C         45.1910   42.8440   35.0320 C.2   484  PHE484      0.2264
    260  O         46.1640   42.6400   34.3080 O.2   484  PHE484     -0.2867
    261  CB        43.8740   40.7280   35.4190 C.3   484  PHE484      0.0534
    262  CG        44.0530   39.3740   36.0410 C.ar  484  PHE484     -0.0203
    263  CD1       43.9730   39.2170   37.4250 C.ar  484  PHE484     -0.0042
    264  CD2       44.3430   38.2630   35.2540 C.ar  484  PHE484     -0.0042
    265  CE1       44.1850   37.9690   38.0170 C.ar  484  PHE484     -0.0003
    266  CE2       44.5540   37.0160   35.8300 C.ar  484  PHE484     -0.0003
    267  CZ        44.4760   36.8680   37.2180 C.ar  484  PHE484     -0.0000
@<TRIPOS>BOND
     1   168   169    1
     2   170   169    1
     3   170   171    2
     4   169   172    1
     5    52    51    2
     6    51    50    1
     7   172   173    1
     8   260   259    2
     9    49    50    1
    10    38    37    2
    11    50    53    1
    12   259   258    1
    13    37    36    1
    14   264   266   ar
    15   264   262   ar
    16   261   262    1
    17   261   258    1
    18   173   175   ar
    19   173   174   ar
    20   266   267   ar
    21   262   263   ar
    22   258   257    1
    23    53    54    1
    24   175   177   ar
    25   174   176   ar
    26    36    35    1
    27    36    39    1
    28    54    55    1
    29   267   265   ar
    30   177   178   ar
    31   263   265   ar
    32    39    40    1
    33   176   178   ar
    34   248   247    2
    35   105   104   ar
    36    55    56    2
    37    55    57   am
    38   247   246    1
    39   104   106   ar
    40   104   103    1
    41    40    41   ar
    42    40    42   ar
    43   163   162    2
    44   103   102    1
    45    41    43   ar
    46   231   229   ar
    47   231   232   ar
    48   102    99    1
    49    98    99    1
    50    42    45   ar
    51    42    44   ar
    52    99   100    1
    53   229   227   ar
    54   167   165   ar
    55    45    47   ar
    56   162   161    1
    57   233   232    1
    58   246   249    1
    59   246   245    1
    60   249   250    1
    61   164   165    1
    62   164   161    1
    63   232   230   ar
    64    43    44   ar
    65   165   166   ar
    66   225   224    2
    67    44    46   ar
    68   161   160    1
    69   245   236   am
    70    47    48   ar
    71   237   236    2
    72   227   226    1
    73   227   228   ar
    74   100   101    2
    75   100   107   am
    76   236   235    1
    77   187   186    1
    78   224   223    1
    79   185   186    1
    80   185   184    1
    81   226   223    1
    82   250   251   ar
    83   250   252   ar
    84   230   228   ar
    85   184   183    1
    86   234   235    1
    87   183   180    1
    88    46    48   ar
    89   235   238    1
    90   251   253   ar
    91   107   108    1
    92   252   254   ar
    93   223   222    1
    94   180   179    1
    95   180   181    1
    96   154   153    2
    97   115   116    1
    98   153   152    1
    99   253   255   ar
   100   238   239    1
   101   121   119    1
   102   108   109    1
   103   108   111    1
   104   254   255   ar
   105   155   152    1
   106   155   156    1
   107   128   130   ar
   108   128   127   ar
   109   239   240    1
   110   109   110    2
   111   130   131   ar
   112   255   256    1
   113   181   182    2
   114   181   188   am
   115   116   119    1
   116   116   117    1
   117   152   151    1
   118   156   157    1
   119   111   112    1
   120   205   207   ar
   121   205   204   ar
   122   207   208   ar
   123   126   127    1
   124   126   123    1
   125   127   129   ar
   126   119   120    1
   127   113   112   ar
   128   188   189    1
   129   204   203    1
   130   204   206   ar
   131   203   200    1
   132   208   206   ar
   133   122   123    1
   134   158   157   ar
   135   131   129   ar
   136   123   124    1
   137   112   114   ar
   138    34    32   ar
   139   240   241    1
   140   157   159   ar
   141   117   118    2
   142   199   200    1
   143   199   190   am
   144   218   217    2
   145   200   201    1
   146   241   242    2
   147   189   192    1
   148   189   190    1
   149    66    67   ar
   150    66    64   ar
   151    31    32    1
   152    31    30    1
   153   201   202    2
   154   192   193    1
   155    27    26    1
   156    27    30    1
   157    27    28    1
   158    32    33   ar
   159   190   191    2
   160   124   125    2
   161   124   132   am
   162    67    65   ar
   163   217   216    1
   164    64    63   ar
   165    28    29    2
   166   242   244    1
   167   242   243    1
   168   132   133    1
   169   193   195   ar
   170   193   194   ar
   171   195   197   ar
   172   220   219    1
   173   150   149   ar
   174   150   148   ar
   175   149   147   ar
   176   140   138   ar
   177    65    63   ar
   178    63    62    1
   179   216   219    1
   180   216   215    1
   181   219   221    1
   182   194   196   ar
   183    72    69    1
   184   133   136    1
   185   133   134    1
   186   148   146   ar
   187   137   138    1
   188   137   136    1
   189   147   146   ar
   190   197   198   ar
   191   138   139   ar
   192    62    59    1
   193   141   142    1
   194    71    70    2
   195    68    69    1
   196    68    60   am
   197   146   145    1
   198    59    60    1
   199    59    58    1
   200   209   210    1
   201   134   135    2
   202    69    70    1
   203   196   198   ar
   204    60    61    2
   205    70    73   am
   206   213   210    1
   207   213   214    1
   208   142   145    1
   209   142   143    1
   210   211   210    1
   211   211   212    2
   212    73    74    1
   213   143   144    2
   214    74    77    1
   215    74    75    1
   216    77    78    1
   217    25    23   ar
   218    75    79   am
   219    75    76    2
   220    79    80    1
   221    83    80    1
   222    24    23   ar
   223    23    22    1
   224    20    19    2
   225    18    17    1
   226    18    19    1
   227    18    21    1
   228    80    81    1
   229    82    81    2
   230    21    22    1
   231    81    84   am
   232    84    85    1
   233    92    90   ar
   234    92    93   ar
   235    90    89   ar
   236    15    14    2
   237    85    86    1
   238    85    88    1
   239    93    95   ar
   240    93    91   ar
   241    95    97   ar
   242    89    91   ar
   243    89    88    1
   244    14    16   am
   245    14    13    1
   246    86    87    2
   247    91    94   ar
   248    12    11    2
   249    13    10    1
   250    97    96   ar
   251    10    11    1
   252    10     9    1
   253    94    96   ar
   254     8     6   am
   255     7     6    2
   256     6     5    1
   257     4     3    2
   258     5     2    1
   259     3     2    1
   260     2     1    1
