@<TRIPOS>MOLECULE
tmp/1o8bB00.pdb
 102 96 0 0 0
SMALL
GASTEIGER

@<TRIPOS>ATOM
      1  N         27.9350   30.2390   27.1160 N.3     6  LYS6       -0.1245
      2  CA        27.4020   28.8820   27.1760 C.3     6  LYS6        0.1561
      3  C         27.5440   28.2930   28.5650 C.2     6  LYS6        0.2260
      4  O         26.6390   27.5870   29.0690 O.2     6  LYS6       -0.2867
      5  CB        28.1040   27.9830   26.1390 C.3     6  LYS6        0.0271
      6  CG        27.7670   28.3770   24.6750 C.3     6  LYS6        0.0035
      7  CD        28.5650   27.5240   23.6900 C.3     6  LYS6        0.0206
      8  CE        28.1310   27.8150   22.2690 C.3     6  LYS6        0.1093
      9  NZ        29.0890   27.1260   21.3680 N.3     6  LYS6       -0.1314
     10  N         22.5040   17.5490   24.2220 N.3    23  THR23      -0.1203
     11  CA        23.7490   17.3110   23.5220 C.3    23  THR23       0.1994
     12  C         24.2120   18.6200   22.8990 C.2    23  THR23       0.2618
     13  O         23.4250   19.5450   22.6770 O.2    23  THR23      -0.2717
     14  CB        23.4920   16.2730   22.4090 C.3    23  THR23       0.1784
     15  OG1       23.1480   15.0120   22.9840 O.3    23  THR23      -0.2211
     16  CG2       24.7430   15.9670   21.6150 C.3    23  THR23       0.0376
     17  N         25.4960   18.6910   22.6550 N.am   24  GLY24      -0.1942
     18  CA        26.0960   19.8410   22.0150 C.3    24  GLY24       0.2014
     19  C         26.9710   20.6110   22.9800 C.2    24  GLY24       0.2640
     20  O         27.1160   20.2450   24.1530 O.2    24  GLY24      -0.2714
     21  N         27.6030   21.6790   22.4880 N.am   25  SER25      -0.1935
     22  CA        28.5850   22.4050   23.2890 C.3    25  SER25       0.2055
     23  C         27.9940   23.1730   24.4780 C.2    25  SER25       0.2644
     24  O         28.6910   23.4390   25.4540 O.2    25  SER25      -0.2714
     25  CB        29.4120   23.3220   22.3750 C.3    25  SER25       0.2130
     26  OG        28.6950   24.5010   21.9880 O.3    25  SER25      -0.2179
     27  N         26.7210   23.5480   24.3860 N.am   26  THR26      -0.1936
     28  CA        26.1040   24.2420   25.5140 C.3    26  THR26       0.2028
     29  C         25.7070   23.1970   26.5500 C.2    26  THR26       0.2642
     30  O         25.9900   23.3500   27.7410 O.2    26  THR26      -0.2714
     31  CB        24.9000   25.0920   25.0460 C.3    26  THR26       0.1808
     32  OG1       25.2950   25.9440   23.9560 O.3    26  THR26      -0.2208
     33  CG2       24.4270   26.0330   26.1110 C.3    26  THR26       0.0379
     34  N         25.0860   22.1240   26.0810 N.am   27  ALA27      -0.1977
     35  CA        24.7010   21.0500   26.9640 C.3    27  ALA27       0.1597
     36  C         25.9140   20.4790   27.6920 C.2    27  ALA27       0.2287
     37  O         25.7740   20.0040   28.8280 O.2    27  ALA27      -0.2864
     38  CB        24.0190   19.9410   26.1430 C.3    27  ALA27       0.0319
     39  N         18.5490   21.1510   27.1080 N.3    75  ASP75      -0.1225
     40  CA        19.2550   20.9630   25.8250 C.3    75  ASP75       0.1805
     41  C         19.4080   22.3050   25.1520 C.2    75  ASP75       0.2598
     42  O         18.7120   23.2760   25.4410 O.2    75  ASP75      -0.2718
     43  CB        18.4250   20.0320   24.9340 C.3    75  ASP75       0.1424
     44  CG        19.1890   19.4210   23.7880 C.2    75  ASP75       0.3668
     45  OD1       20.4270   19.6020   23.6680 O.co2  75  ASP75      -0.2456
     46  OD2       18.5580   18.7240   22.9700 O.co2  75  ASP75      -0.2456
     47  N         20.3610   22.3390   24.2240 N.am   76  GLY76      -0.1942
     48  CA        20.5360   23.5050   23.4060 C.3    76  GLY76       0.2014
     49  C         19.6410   23.5340   22.1780 C.2    76  GLY76       0.2639
     50  O         18.6980   22.7850   22.0450 O.2    76  GLY76      -0.2714
     51  N         19.9210   24.4770   21.2850 N.am   77  ALA77      -0.1963
     52  CA        19.1770   24.5850   20.0350 C.3    77  ALA77       0.1728
     53  C         20.0140   25.3550   19.0280 C.2    77  ALA77       0.2616
     54  O         20.8970   26.1170   19.4070 O.2    77  ALA77      -0.2715
     55  CB        17.8940   25.3030   20.2800 C.3    77  ALA77       0.0334
     56  N         19.7070   25.2030   17.7590 N.am   78  ASP78      -0.1971
     57  CA        20.3600   26.0360   16.7460 C.3    78  ASP78       0.1709
     58  C         19.6870   27.4210   16.6360 C.2    78  ASP78       0.2293
     59  O         20.3710   28.4270   16.3610 O.2    78  ASP78      -0.2864
     60  CB        20.3580   25.3300   15.4140 C.3    78  ASP78       0.1436
     61  CG        20.9910   23.9440   15.5090 C.2    78  ASP78       0.3671
     62  OD1       22.1450   23.8380   15.9950 O.co2  78  ASP78      -0.2456
     63  OD2       20.3590   22.9310   15.1280 O.co2  78  ASP78      -0.2456
     64  N         16.5250   22.4480   15.7180 N.3    86  LYS86      -0.1231
     65  CA        17.5260   21.5800   16.3400 C.3    86  LYS86       0.1693
     66  C         17.9300   20.5560   15.2990 C.2    86  LYS86       0.2593
     67  O         17.2830   20.3430   14.2760 O.2    86  LYS86      -0.2718
     68  CB        16.8900   20.8680   17.5340 C.3    86  LYS86       0.0285
     69  CG        16.7410   21.8400   18.7030 C.3    86  LYS86       0.0035
     70  CD        16.0020   21.2480   19.9350 C.3    86  LYS86       0.0206
     71  CE        16.6890   20.0170   20.4840 C.3    86  LYS86       0.1093
     72  NZ        18.1430   20.2620   20.8460 N.3    86  LYS86      -0.1314
     73  N         19.0010   19.8400   15.5980 N.am   87  GLY87      -0.1942
     74  CA        19.4770   18.7910   14.7010 C.3    87  GLY87       0.2014
     75  C         20.6850   19.1470   13.8670 C.2    87  GLY87       0.2639
     76  O         21.1090   18.3140   13.0570 O.2    87  GLY87      -0.2714
     77  N         21.2030   20.3790   14.0080 N.am   88  GLY88      -0.1939
     78  CA        22.4210   20.7680   13.3470 C.3    88  GLY88       0.2014
     79  C         23.4950   19.7570   13.6960 C.2    88  GLY88       0.2639
     80  O         24.3740   19.4550   12.8840 O.2    88  GLY88      -0.2714
     81  N         23.4510   19.2210   14.8930 N.am   89  GLY89      -0.1954
     82  CA        24.4480   18.2480   15.2520 C.3    89  GLY89       0.1869
     83  C         24.0140   16.8070   15.0490 C.2    89  GLY89       0.2309
     84  O         23.5480   16.3790   13.9480 O.2    89  GLY89      -0.2863
     85  N         16.8510   13.3330   20.5630 N.3    94  GLU94      -0.1245
     86  CA        16.5270   14.5610   21.2960 C.3    94  GLU94       0.1567
     87  C         15.0300   14.8030   21.2220 C.2    94  GLU94       0.2260
     88  O         14.4430   15.1570   22.2310 O.2    94  GLU94      -0.2867
     89  CB        17.2650   15.7560   20.6690 C.3    94  GLU94       0.0388
     90  CG        18.7970   15.7400   20.7260 C.3    94  GLU94       0.1160
     91  CD        19.4450   16.7190   19.7660 C.2    94  GLU94       0.3649
     92  OE1       18.7520   17.5260   19.1990 O.co2  94  GLU94      -0.2457
     93  OE2       20.6630   16.6370   19.5410 O.co2  94  GLU94      -0.2457
     94  N         21.4770   32.5290   19.4430 N.3   112  LYS112     -0.1241
     95  CA        20.4400   31.5900   19.0060 C.3   112  LYS112      0.1604
     96  C         19.0460   32.2160   18.8760 C.2   112  LYS112      0.2264
     97  O         18.1790   31.6300   18.2690 O.2   112  LYS112     -0.2867
     98  CB        20.3190   30.4200   19.9810 C.3   112  LYS112      0.0527
     99  CG        21.5810   29.5430   20.2060 C.2   112  LYS112     -0.0273
    100  CD        22.5490   29.4840   19.0750 C.2   112  LYS112     -0.0103
    101  CE        23.7050   28.4450   19.2430 C.3   112  LYS112      0.1350
    102  NZ        23.4500   27.2740   20.1850 N.3   112  LYS112     -0.1262
@<TRIPOS>BOND
     1    80    79    2
     2    76    75    2
     3    78    79    1
     4    78    77    1
     5    79    81   am
     6    75    77   am
     7    75    74    1
     8    84    83    2
     9    67    66    2
    10    74    73    1
    11    81    82    1
    12    83    82    1
    13    63    61   ar
    14    66    73   am
    15    66    65    1
    16    60    61    1
    17    60    57    1
    18    61    62   ar
    19    64    65    1
    20    65    68    1
    21    59    58    2
    22    58    57    1
    23    57    56    1
    24    68    69    1
    25    56    53   am
    26    97    96    2
    27    69    70    1
    28    96    95    1
    29    95    94    1
    30    95    98    1
    31    53    54    2
    32    53    52    1
    33   100   101    1
    34   100    99    2
    35    92    91   ar
    36   101   102    1
    37    93    91   ar
    38    91    90    1
    39    70    71    1
    40    98    99    1
    41    52    55    1
    42    52    51    1
    43    71    72    1
    44    85    86    1
    45    89    90    1
    46    89    86    1
    47    87    86    1
    48    87    88    2
    49    51    49   am
    50     9     8    1
    51    16    14    1
    52    26    25    1
    53    18    17    1
    54    18    19    1
    55    50    49    2
    56    49    48    1
    57     8     7    1
    58    25    22    1
    59    14    15    1
    60    14    11    1
    61    21    19   am
    62    21    22    1
    63    17    12   am
    64    13    12    2
    65    12    11    1
    66    46    44   ar
    67    19    20    2
    68    22    23    1
    69    48    47    1
    70    11    10    1
    71    45    44   ar
    72     7     6    1
    73    44    43    1
    74    32    31    1
    75    47    41   am
    76    27    23   am
    77    27    28    1
    78    23    24    2
    79     6     5    1
    80    43    40    1
    81    31    28    1
    82    31    33    1
    83    41    42    2
    84    41    40    1
    85    28    29    1
    86    40    39    1
    87    34    29   am
    88    34    35    1
    89     5     2    1
    90    38    35    1
    91    29    30    2
    92    35    36    1
    93     1     2    1
    94     2     3    1
    95    36    37    2
    96     3     4    2
