@<TRIPOS>MOLECULE
tmp/1o8sA00.pdb
 85 85 0 0 0
SMALL
GASTEIGER

@<TRIPOS>ATOM
      1  N         -7.0040   42.9420    9.1660 N.3    27  PHE27      -0.1241
      2  CA        -8.4290   43.1320    9.0180 C.3    27  PHE27       0.1605
      3  C         -8.7340   44.0490    7.8600 C.2    27  PHE27       0.2264
      4  O         -7.8860   44.8360    7.3950 O.2    27  PHE27      -0.2867
      5  CB        -9.0450   43.7090   10.3430 C.3    27  PHE27       0.0534
      6  CG        -8.3880   44.9750   10.7960 C.ar   27  PHE27      -0.0203
      7  CD1       -8.8000   46.1750   10.2930 C.ar   27  PHE27      -0.0042
      8  CD2       -7.3070   44.9780   11.6470 C.ar   27  PHE27      -0.0042
      9  CE1       -8.2170   47.3220   10.6670 C.ar   27  PHE27      -0.0003
     10  CE2       -6.7120   46.2160   11.9750 C.ar   27  PHE27      -0.0003
     11  CZ        -7.2000   47.3420   11.4440 C.ar   27  PHE27      -0.0000
     12  N         -3.2140   45.6480   12.7900 N.3    37  GLY37      -0.1210
     13  CA        -3.5420   46.3080   14.0310 C.3    37  GLY37       0.1956
     14  C         -3.5380   45.3370   15.1760 C.2    37  GLY37       0.2612
     15  O         -2.9570   44.2420   15.1250 O.2    37  GLY37      -0.2717
     16  N         -4.1550   45.7760   16.2690 N.am   38  TYR38      -0.1962
     17  CA        -4.0100   45.1040   17.5760 C.3    38  TYR38       0.1771
     18  C         -2.5560   44.9470   17.9680 C.2    38  TYR38       0.2619
     19  O         -2.1280   43.9400   18.5310 O.2    38  TYR38      -0.2715
     20  CB        -4.8300   43.8040   17.6230 C.3    38  TYR38       0.0574
     21  CG        -6.2950   44.1110   17.2350 C.ar   38  TYR38      -0.0198
     22  CD1       -7.2280   44.3920   18.2090 C.ar   38  TYR38      -0.0009
     23  CD2       -6.7230   44.1900   15.8880 C.ar   38  TYR38      -0.0009
     24  CE1       -8.5500   44.7220   17.9240 C.ar   38  TYR38       0.0417
     25  CE2       -8.0680   44.5260   15.5870 C.ar   38  TYR38       0.0417
     26  CZ        -8.9550   44.8000   16.6290 C.ar   38  TYR38       0.1957
     27  OH       -10.2510   45.1260   16.3540 O.3    38  TYR38      -0.2866
     28  N         -1.8040   46.0040   17.6730 N.am   39  ILE39      -0.1963
     29  CA        -0.3850   46.0650   17.9020 C.3    39  ILE39       0.1727
     30  C         -0.0820   46.5880   19.3040 C.2    39  ILE39       0.2616
     31  O         -0.8150   47.4390   19.8640 O.2    39  ILE39      -0.2715
     32  CB         0.2250   46.9670   16.7750 C.3    39  ILE39       0.0290
     33  CG1        0.3170   46.1580   15.4790 C.3    39  ILE39       0.0022
     34  CG2        1.5940   47.5570   17.1700 C.3    39  ILE39       0.0023
     35  CD1        0.5830   46.9770   14.2390 C.3    39  ILE39       0.0001
     36  N          1.0110   46.1250   19.8850 N.am   40  GLU40      -0.1977
     37  CA         1.4710   46.5330   21.1940 C.3    40  GLU40       0.1602
     38  C          2.9630   46.8470   21.1250 C.2    40  GLU40       0.2287
     39  O          3.6780   46.4480   20.1820 O.2    40  GLU40      -0.2864
     40  CB         1.2770   45.3490   22.1850 C.3    40  GLU40       0.0415
     41  CG        -0.1370   44.8200   22.2680 C.3    40  GLU40       0.1163
     42  CD        -1.1440   45.7970   22.7680 C.2    40  GLU40       0.3649
     43  OE1       -0.7640   46.8020   23.4260 O.co2  40  GLU40      -0.2457
     44  OE2       -2.3570   45.5730   22.5650 O.co2  40  GLU40      -0.2457
     45  N         -8.8170   55.1660   15.3500 N.3    94  PHE94      -0.1227
     46  CA        -8.2460   53.9820   14.7240 C.3    94  PHE94       0.1736
     47  C         -8.7820   53.7130   13.3580 C.2    94  PHE94       0.2595
     48  O         -8.2210   52.8730   12.6440 O.2    94  PHE94      -0.2718
     49  CB        -8.3570   52.7600   15.6220 C.3    94  PHE94       0.0547
     50  CG        -7.3790   52.7720   16.7520 C.ar   94  PHE94      -0.0202
     51  CD1       -6.0400   52.5380   16.5160 C.ar   94  PHE94      -0.0042
     52  CD2       -7.7920   52.9470   18.0750 C.ar   94  PHE94      -0.0042
     53  CE1       -5.1340   52.4870   17.5430 C.ar   94  PHE94      -0.0003
     54  CE2       -6.8560   52.9170   19.1140 C.ar   94  PHE94      -0.0003
     55  CZ        -5.5360   52.7050   18.8220 C.ar   94  PHE94      -0.0000
     56  N         -9.8470   54.4120   12.9480 N.am   95  ASP95      -0.1974
     57  CA       -10.4240   54.2450   11.6170 C.3    95  ASP95       0.1709
     58  C        -10.1240   55.4010   10.6760 C.2    95  ASP95       0.2293
     59  O        -10.5460   55.3490    9.5180 O.2    95  ASP95      -0.2864
     60  CB       -11.9470   54.0530   11.7370 C.3    95  ASP95       0.1436
     61  CG       -12.2760   52.9310   12.6380 C.2    95  ASP95       0.3671
     62  OD1      -11.7300   51.8660   12.3880 O.co2  95  ASP95      -0.2456
     63  OD2      -13.1000   53.0400   13.5780 O.co2  95  ASP95      -0.2456
     64  N          0.0290   51.0230   20.2510 N.3   120  PRO120     -0.2102
     65  CA        -1.0580   50.7840   19.3110 C.3   120  PRO120      0.1504
     66  C         -1.0660   51.7450   18.1220 C.2   120  PRO120      0.2576
     67  O         -0.9840   52.9740   18.2710 O.2   120  PRO120     -0.2718
     68  CB        -2.3040   50.9070   20.1680 C.3   120  PRO120      0.0282
     69  CG        -1.8360   50.5150   21.5250 C.3   120  PRO120      0.0208
     70  CD        -0.4650   51.1060   21.6430 C.3   120  PRO120      0.0893
     71  N         -1.1850   51.1720   16.9320 N.am  121  VAL121     -0.1966
     72  CA        -1.2750   51.8850   15.6580 C.3   121  VAL121      0.1727
     73  C         -1.7850   50.8690   14.6410 C.2   121  VAL121      0.2616
     74  O         -1.5150   49.6860   14.7380 O.2   121  VAL121     -0.2715
     75  CB         0.0800   52.4440   15.2260 C.3   121  VAL121      0.0290
     76  CG1        1.1070   51.3440   15.0190 C.3   121  VAL121      0.0023
     77  CG2       -0.0340   53.3160   13.9950 C.3   121  VAL121      0.0023
     78  N         -2.5620   51.3490   13.6720 N.am  122  ASN122     -0.1972
     79  CA        -2.9690   50.5310   12.5440 C.3   122  ASN122      0.1688
     80  C         -2.2080   51.0100   11.3150 C.2   122  ASN122      0.2292
     81  O         -2.0410   52.2130   11.1300 O.2   122  ASN122     -0.2864
     82  CB        -4.4630   50.6370   12.2910 C.3   122  ASN122      0.1181
     83  CG        -5.2970   50.0830   13.4160 C.2   122  ASN122      0.2629
     84  OD1       -4.8080   49.3160   14.2110 O.2   122  ASN122     -0.2716
     85  ND2       -6.5800   50.4710   13.4850 N.am  122  ASN122     -0.0877
@<TRIPOS>BOND
     1     4     3    2
     2     3     2    1
     3     2     1    1
     4     2     5    1
     5    59    58    2
     6     7     9   ar
     7     7     6   ar
     8     5     6    1
     9     9    11   ar
    10    58    57    1
    11     6     8   ar
    12    81    80    2
    13    80    79    1
    14    11    10   ar
    15    57    60    1
    16    57    56    1
    17     8    10   ar
    18    60    61    1
    19    82    79    1
    20    82    83    1
    21    62    61   ar
    22    79    78    1
    23    61    63   ar
    24    48    47    2
    25    12    13    1
    26    56    47   am
    27    47    46    1
    28    83    85   am
    29    83    84    2
    30    78    73   am
    31    77    75    1
    32    13    14    1
    33    35    33    1
    34    73    74    2
    35    73    72    1
    36    46    45    1
    37    46    49    1
    38    76    75    1
    39    15    14    2
    40    14    16   am
    41    75    72    1
    42    33    32    1
    43    25    23   ar
    44    25    26   ar
    45    49    50    1
    46    72    71    1
    47    23    21   ar
    48    16    17    1
    49    27    26    1
    50    51    50   ar
    51    51    53   ar
    52    26    24   ar
    53    50    52   ar
    54    32    34    1
    55    32    29    1
    56    71    66   am
    57    21    20    1
    58    21    22   ar
    59    53    55   ar
    60    17    20    1
    61    17    18    1
    62    28    29    1
    63    28    18   am
    64    29    30    1
    65    24    22   ar
    66    18    19    2
    67    52    54   ar
    68    66    67    2
    69    66    65    1
    70    55    54   ar
    71    30    31    2
    72    30    36   am
    73    65    68    1
    74    65    64    1
    75    36    37    1
    76    68    69    1
    77    39    38    2
    78    64    70    1
    79    38    37    1
    80    37    40    1
    81    69    70    1
    82    40    41    1
    83    41    42    1
    84    44    42   ar
    85    42    43   ar
