@<TRIPOS>MOLECULE
tmp/1o8vA00.pdb
 218 201 0 0 0
SMALL
GASTEIGER

@<TRIPOS>ATOM
      1  N         -3.6370   -9.1470   10.9810 N.3    16  PHE16      -0.1241
      2  CA        -2.4170   -9.1020   10.1810 C.3    16  PHE16       0.1605
      3  C         -2.3200  -10.2910    9.2420 C.2    16  PHE16       0.2264
      4  O         -1.7430  -10.1650    8.1500 O.2    16  PHE16      -0.2867
      5  CB        -1.1790   -9.0630   11.0790 C.3    16  PHE16       0.0534
      6  CG         0.0860   -8.5840   10.4010 C.ar   16  PHE16      -0.0203
      7  CD1        0.1210   -7.3770    9.7370 C.ar   16  PHE16      -0.0042
      8  CD2        1.2560   -9.3190   10.5080 C.ar   16  PHE16      -0.0042
      9  CE1        1.2920   -6.9150    9.1850 C.ar   16  PHE16      -0.0003
     10  CE2        2.4370   -8.8800    9.9280 C.ar   16  PHE16      -0.0003
     11  CZ         2.4550   -7.6840    9.2840 C.ar   16  PHE16      -0.0000
     12  N         -4.1630   -9.4010    6.1480 N.3    19  ILE19      -0.1231
     13  CA        -3.4060   -8.4300    5.3570 C.3    19  ILE19       0.1692
     14  C         -2.3350   -9.1580    4.5430 C.2    19  ILE19       0.2591
     15  O         -2.1990   -8.9490    3.3390 O.2    19  ILE19      -0.2718
     16  CB        -2.7270   -7.3820    6.2900 C.3    19  ILE19       0.0266
     17  CG1       -3.7660   -6.4290    6.8850 C.3    19  ILE19       0.0019
     18  CG2       -1.6610   -6.5990    5.5490 C.3    19  ILE19       0.0020
     19  CD1       -4.4340   -5.5070    5.8920 C.3    19  ILE19       0.0001
     20  N         -1.5560   -9.9990    5.2190 N.am   20  MET20      -0.1979
     21  CA        -0.4900  -10.7180    4.5240 C.3    20  MET20       0.1605
     22  C         -1.0420  -11.6190    3.4110 C.2    20  MET20       0.2287
     23  O         -0.4340  -11.7530    2.3610 O.2    20  MET20      -0.2864
     24  CB         0.3230  -11.5560    5.5330 C.3    20  MET20       0.0413
     25  CG         1.2000  -10.7340    6.4660 C.3    20  MET20       0.0598
     26  SD         2.3200  -11.7320    7.4650 S.3    20  MET20      -0.1393
     27  CE         1.1580  -12.5280    8.5580 C.3    20  MET20       0.0692
     28  N         -1.8890   -9.5700    0.3790 N.3    23  LEU23      -0.1245
     29  CA        -0.6770   -9.0320   -0.2660 C.3    23  LEU23       0.1561
     30  C          0.1630  -10.1030   -0.9660 C.2    23  LEU23       0.2260
     31  O          1.1450   -9.7730   -1.6470 O.2    23  LEU23      -0.2867
     32  CB         0.1800   -8.3110    0.7600 C.3    23  LEU23       0.0270
     33  CG        -0.3760   -6.9910    1.2770 C.3    23  LEU23       0.0019
     34  CD1        0.4410   -6.4690    2.4540 C.3    23  LEU23       0.0001
     35  CD2       -0.4580   -5.9900    0.1410 C.3    23  LEU23       0.0001
     36  N          1.8500  -12.6440    0.5480 N.3    25  VAL25      -0.1245
     37  CA         2.9500  -13.1190    1.3590 C.3    25  VAL25       0.1561
     38  C          2.8760  -14.6500    1.4190 C.2    25  VAL25       0.2260
     39  O          1.7950  -15.2250    1.6050 O.2    25  VAL25      -0.2867
     40  CB         2.9000  -12.5240    2.7700 C.3    25  VAL25       0.0252
     41  CG1        4.0830  -13.0000    3.5810 C.3    25  VAL25       0.0019
     42  CG2        2.8950  -10.9710    2.6970 C.3    25  VAL25       0.0019
     43  N          6.5000  -17.2520    5.4060 N.3    29  THR29      -0.1218
     44  CA         6.6740  -15.8780    5.8890 C.3    29  THR29       0.1862
     45  C          5.4880  -15.4630    6.7330 C.2    29  THR29       0.2287
     46  O          5.6670  -14.7850    7.7450 O.2    29  THR29      -0.2866
     47  CB         6.9020  -14.9120    4.7290 C.3    29  THR29       0.1770
     48  OG1        8.0850  -15.2980    4.0090 O.3    29  THR29      -0.2211
     49  CG2        7.1960  -13.5160    5.2200 C.3    29  THR29       0.0375
     50  N          5.7580  -16.7950   10.2150 N.3    32  MET32      -0.1230
     51  CA         6.6500  -15.9190   10.9760 C.3    32  MET32       0.1702
     52  C          5.9500  -14.6160   11.3400 C.2    32  MET32       0.2592
     53  O          5.9860  -14.1840   12.4880 O.2    32  MET32      -0.2718
     54  CB         7.8970  -15.6060   10.1620 C.3    32  MET32       0.0401
     55  CG         8.8610  -14.6470   10.8530 C.3    32  MET32       0.0596
     56  SD         9.9140  -15.3680   12.1300 S.3    32  MET32      -0.1393
     57  CE         9.6550  -17.1750   11.9290 C.3    32  MET32       0.0692
     58  N          5.3040  -13.9890   10.3670 N.am   33  GLY33      -0.1957
     59  CA         4.6760  -12.7010   10.5730 C.3    33  GLY33       0.1869
     60  C          3.5990  -12.7340   11.6430 C.2    33  GLY33       0.2309
     61  O          3.3790  -11.7370   12.3250 O.2    33  GLY33      -0.2863
     62  N          5.5780  -12.9880   15.3610 N.3    36  VAL36      -0.1245
     63  CA         6.5210  -11.9980   15.8880 C.3    36  VAL36       0.1561
     64  C          5.8470  -10.7650   16.4830 C.2    36  VAL36       0.2260
     65  O          4.7400  -10.3600   16.1050 O.2    36  VAL36      -0.2867
     66  CB         7.6020  -11.6070   14.8460 C.3    36  VAL36       0.0252
     67  CG1        8.3660  -12.8420   14.3630 C.3    36  VAL36       0.0019
     68  CG2        7.0180  -10.8380   13.6950 C.3    36  VAL36       0.0019
     69  N          7.2520   -7.2000   17.1010 N.3    38  PRO38      -0.2116
     70  CA         8.3940   -6.3150   16.9050 C.3    38  PRO38       0.1372
     71  C          8.3980   -5.1200   17.8200 C.2    38  PRO38       0.2244
     72  O          7.3900   -4.7600   18.4350 O.2    38  PRO38      -0.2868
     73  CB         8.2510   -5.8510   15.4520 C.3    38  PRO38       0.0268
     74  CG         6.8430   -5.9510   15.1620 C.3    38  PRO38       0.0207
     75  CD         6.2760   -7.0610   16.0060 C.3    38  PRO38       0.0892
     76  N          9.3310   -0.9410   17.5250 N.3    40  LEU40      -0.1245
     77  CA         9.3960    0.1100   16.5480 C.3    40  LEU40       0.1561
     78  C         10.1520    1.2440   17.1980 C.2    40  LEU40       0.2260
     79  O          9.7710    1.7010   18.2720 O.2    40  LEU40      -0.2867
     80  CB         7.9930    0.5790   16.1780 C.3    40  LEU40       0.0270
     81  CG         7.9170    1.8220   15.3100 C.3    40  LEU40       0.0019
     82  CD1        8.4770    1.5160   13.9540 C.3    40  LEU40       0.0001
     83  CD2        6.4970    2.3000   15.1750 C.3    40  LEU40       0.0001
     84  N         12.4670   -1.3630   12.8670 N.3    54  SER54      -0.1217
     85  CA        11.6740   -2.4380   13.4320 C.3    54  SER54       0.1889
     86  C         12.5850   -3.6180   13.6940 C.2    54  SER54       0.2288
     87  O         13.2380   -4.1090   12.7670 O.2    54  SER54      -0.2866
     88  CB        10.5490   -2.8170   12.4720 C.3    54  SER54       0.2089
     89  OG         9.7540   -3.8620   12.9990 O.3    54  SER54      -0.2183
     90  N         12.9350   -7.5000   15.3140 N.3    56  SER56      -0.1217
     91  CA        12.2580   -8.7320   15.7300 C.3    56  SER56       0.1889
     92  C         13.1380   -9.9520   15.4530 C.2    56  SER56       0.2288
     93  O         14.1800   -9.8490   14.8040 O.2    56  SER56      -0.2866
     94  CB        10.9050   -8.8860   15.0380 C.3    56  SER56       0.2089
     95  OG        11.0370   -9.3330   13.6970 O.3    56  SER56      -0.2183
     96  N         12.5880  -12.1000   13.3560 N.3    58  PHE58      -0.1227
     97  CA        12.6550  -12.2460   11.8930 C.3    58  PHE58       0.1736
     98  C         13.8810  -11.5490   11.2750 C.2    58  PHE58       0.2595
     99  O         14.6830  -12.1700   10.5760 O.2    58  PHE58      -0.2718
    100  CB        11.3600  -11.6980   11.2880 C.3    58  PHE58       0.0547
    101  CG        11.1940  -11.9470    9.8140 C.ar   58  PHE58      -0.0202
    102  CD1       11.6870  -13.0950    9.2010 C.ar   58  PHE58      -0.0042
    103  CD2       10.4970  -11.0260    9.0430 C.ar   58  PHE58      -0.0042
    104  CE1       11.5020  -13.3040    7.8240 C.ar   58  PHE58      -0.0003
    105  CE2       10.3100  -11.2310    7.6820 C.ar   58  PHE58      -0.0003
    106  CZ        10.8060  -12.3670    7.0770 C.ar   58  PHE58      -0.0000
    107  N         14.0170  -10.2570   11.5430 N.am   59  LYS59      -0.1980
    108  CA        15.1260   -9.4490   11.0130 C.3    59  LYS59       0.1596
    109  C         14.9990   -8.0350   11.5670 C.2    59  LYS59       0.2287
    110  O         13.9830   -7.6860   12.1740 O.2    59  LYS59      -0.2864
    111  CB        15.1100   -9.3900    9.4680 C.3    59  LYS59       0.0298
    112  CG        13.7300   -9.1310    8.8510 C.3    59  LYS59       0.0038
    113  CD        13.7980   -8.9410    7.3030 C.3    59  LYS59       0.0206
    114  CE        13.5900  -10.2370    6.5380 C.3    59  LYS59       0.1093
    115  NZ        13.2350  -10.0360    5.0900 N.3    59  LYS59      -0.1314
    116  N          9.6020   -3.7890    1.8860 N.3    74  THR74      -0.1204
    117  CA         8.8200   -4.2960    3.0090 C.3    74  THR74       0.1979
    118  C          9.4950   -5.5180    3.6470 C.2    74  THR74       0.2460
    119  O         10.3940   -6.1020    3.0470 O.2    74  THR74      -0.2732
    120  CB         7.4000   -4.6800    2.5250 C.3    74  THR74       0.1783
    121  OG1        7.4790   -5.7340    1.5490 O.3    74  THR74      -0.2211
    122  CG2        6.7440   -3.5000    1.8350 C.3    74  THR74       0.0376
    123  N          9.0690   -5.9000    4.8470 N.am   75  PRO75      -0.2717
    124  CA         9.6770   -7.0440    5.5260 C.3    75  PRO75       0.1535
    125  C          9.5760   -8.3420    4.7370 C.2    75  PRO75       0.2598
    126  O         10.4440   -9.1720    4.9080 O.2    75  PRO75      -0.2715
    127  CB         8.8940   -7.1320    6.8280 C.3    75  PRO75       0.0310
    128  CG         8.4610   -5.7440    7.0810 C.3    75  PRO75       0.0237
    129  CD         8.0780   -5.2360    5.7090 C.3    75  PRO75       0.0939
    130  N          8.5520   -8.5120    3.8920 N.am   76  ASP76      -0.1972
    131  CA         8.3730   -9.7020    3.0610 C.3    76  ASP76       0.1709
    132  C          9.0500   -9.5640    1.6880 C.2    76  ASP76       0.2293
    133  O          8.8590  -10.3900    0.8090 O.2    76  ASP76      -0.2864
    134  CB         6.8770  -10.0290    2.8840 C.3    76  ASP76       0.1436
    135  CG         6.1380   -8.9480    2.1930 C.2    76  ASP76       0.3671
    136  OD1        6.1900   -7.7940    2.6620 O.co2  76  ASP76      -0.2456
    137  OD2        5.4760   -9.1620    1.1670 O.co2  76  ASP76      -0.2456
    138  N          8.9380   -7.0520   -0.7990 N.3    78  ARG78      -0.1245
    139  CA         8.3600   -6.3790   -1.9400 C.3    78  ARG78       0.1563
    140  C          9.0070   -5.0140   -2.0420 C.2    78  ARG78       0.2260
    141  O          9.1650   -4.3170   -1.0380 O.2    78  ARG78      -0.2867
    142  CB         6.8460   -6.1910   -1.8000 C.3    78  ARG78       0.0307
    143  CG         6.0280   -7.4290   -2.0480 C.3    78  ARG78       0.0489
    144  CD         4.5260   -7.2640   -1.7180 C.3    78  ARG78       0.2205
    145  NE         4.3770   -7.1130   -0.2750 N.pl3  78  ARG78      -0.0865
    146  CZ         3.9100   -6.0340    0.3500 C.cat  78  ARG78       0.5346
    147  NH1        3.4510   -5.0050   -0.3250 N.pl3  78  ARG78       0.1354
    148  NH2        3.9680   -6.0020    1.6660 N.pl3  78  ARG78       0.1354
    149  N          2.1040    2.4470    0.8630 N.3    95  GLN95      -0.1245
    150  CA         3.0810    1.5620    0.2140 C.3    95  GLN95       0.1566
    151  C          2.4410    0.9730   -1.0340 C.2    95  GLN95       0.2260
    152  O          1.5440    0.1290   -0.9330 O.2    95  GLN95      -0.2867
    153  CB         3.4930    0.4120    1.1290 C.3    95  GLN95       0.0367
    154  CG         4.1570    0.8160    2.4130 C.3    95  GLN95       0.0905
    155  CD         4.3640   -0.3220    3.3350 C.2    95  GLN95       0.2608
    156  OE1        3.4920   -1.1910    3.4620 O.2    95  GLN95      -0.2717
    157  NE2        5.4690   -0.2840    4.0770 N.am   95  GLN95      -0.0878
    158  N         -0.9530   -0.5090    0.2140 N.3   102  THR102     -0.1218
    159  CA        -1.1560   -0.7010    1.6410 C.3   102  THR102      0.1862
    160  C         -1.2140    0.6700    2.2900 C.2   102  THR102      0.2287
    161  O         -0.3320    1.4930    2.0520 O.2   102  THR102     -0.2866
    162  CB        -0.0250   -1.5110    2.2620 C.3   102  THR102      0.1770
    163  OG1        0.0830   -2.7920    1.6230 O.3   102  THR102     -0.2211
    164  CG2       -0.3040   -1.7810    3.7300 C.3   102  THR102      0.0375
    165  N         -1.2190    2.4920    5.8920 N.3   104  ILE104     -0.1245
    166  CA        -0.9260    2.3770    7.3140 C.3   104  ILE104      0.1561
    167  C         -1.2360    3.7350    7.9480 C.2   104  ILE104      0.2260
    168  O         -0.8940    4.7800    7.4090 O.2   104  ILE104     -0.2867
    169  CB         0.5640    1.9990    7.5510 C.3   104  ILE104      0.0252
    170  CG1        0.9330    0.7600    6.7410 C.3   104  ILE104      0.0019
    171  CG2        0.8280    1.8060    9.0230 C.3   104  ILE104      0.0019
    172  CD1        2.4340    0.5360    6.6330 C.3   104  ILE104      0.0001
    173  N         -0.7980    5.5110   11.8030 N.3   106  ARG106     -0.1245
    174  CA        -0.3340    5.3800   13.1760 C.3   106  ARG106      0.1563
    175  C         -0.8580    6.5440   13.9880 C.2   106  ARG106      0.2260
    176  O         -0.7530    7.6800   13.5570 O.2   106  ARG106     -0.2867
    177  CB         1.1900    5.3490   13.2330 C.3   106  ARG106      0.0307
    178  CG         1.7850    4.0980   12.5500 C.3   106  ARG106      0.0489
    179  CD         3.2900    4.0240   12.5410 C.3   106  ARG106      0.2205
    180  NE         3.7230    2.7750   11.9240 N.pl3 106  ARG106     -0.0865
    181  CZ         4.1280    2.6570   10.6780 C.cat 106  ARG106      0.5346
    182  NH1        4.1780    3.6900    9.8660 N.pl3 106  ARG106      0.1354
    183  NH2        4.4250    1.4600   10.2160 N.pl3 106  ARG106      0.1354
    184  N         -1.3920    1.1340   15.1960 N.3   115  ALA115     -0.1245
    185  CA        -1.1090    1.1070   13.7600 C.3   115  ALA115      0.1562
    186  C         -2.2150    0.3620   13.0640 C.2   115  ALA115      0.2260
    187  O         -2.3600   -0.8570   13.2540 O.2   115  ALA115     -0.2867
    188  CB         0.1960    0.4270   13.4920 C.3   115  ALA115      0.0290
    189  N         -3.6240   -1.0180    9.5710 N.3   117  VAL117     -0.1245
    190  CA        -3.1030   -1.4200    8.2740 C.3   117  VAL117      0.1561
    191  C         -4.2870   -1.8740    7.4390 C.2   117  VAL117      0.2260
    192  O         -5.0840   -2.7340    7.8610 O.2   117  VAL117     -0.2867
    193  CB        -2.0930   -2.5810    8.4140 C.3   117  VAL117      0.0252
    194  CG1       -1.4830   -2.9560    7.0840 C.3   117  VAL117      0.0019
    195  CG2       -1.0290   -2.2230    9.4260 C.3   117  VAL117      0.0019
    196  N         -2.6210   -3.1210   15.0440 N.3   126  ARG126     -0.1245
    197  CA        -1.4730   -3.5240   15.8650 C.3   126  ARG126      0.1563
    198  C         -1.2110   -2.4770   16.9210 C.2   126  ARG126      0.2260
    199  O         -1.0140   -1.2970   16.6050 O.2   126  ARG126     -0.2867
    200  CB        -0.2480   -3.7340   14.9800 C.3   126  ARG126      0.0307
    201  CG        -0.4130   -4.9700   14.1030 C.3   126  ARG126      0.0489
    202  CD         0.4040   -4.9510   12.8330 C.3   126  ARG126      0.2205
    203  NE         1.8170   -5.2760   12.9890 N.pl3 126  ARG126     -0.0865
    204  CZ         2.3360   -6.4810   13.1640 C.cat 126  ARG126      0.5346
    205  NH1        1.5860   -7.5510   13.4020 N.pl3 126  ARG126      0.1354
    206  NH2        3.6700   -6.5990   13.1850 N.pl3 126  ARG126      0.1354
    207  N          0.8020   -1.0060   20.2560 N.3   128  TYR128     -0.1241
    208  CA         2.1340   -0.9470   20.8410 C.3   128  TYR128      0.1605
    209  C          2.0900   -0.1380   22.1290 C.2   128  TYR128      0.2264
    210  O          1.2710    0.7660   22.2640 O.2   128  TYR128     -0.2867
    211  CB         3.0920   -0.2130   19.9090 C.3   128  TYR128      0.0534
    212  CG         3.4370   -0.8750   18.5890 C.ar  128  TYR128     -0.0201
    213  CD1        2.5400   -0.8940   17.5280 C.ar  128  TYR128     -0.0009
    214  CD2        4.6830   -1.4460   18.4030 C.ar  128  TYR128     -0.0009
    215  CE1        2.8880   -1.4810   16.3070 C.ar  128  TYR128      0.0417
    216  CE2        5.0330   -2.0230   17.1960 C.ar  128  TYR128      0.0417
    217  CZ         4.1380   -2.0570   16.1660 C.ar  128  TYR128      0.1957
    218  OH         4.5590   -2.6500   14.9980 O.3   128  TYR128     -0.2866
@<TRIPOS>BOND
     1   143   142    1
     2   143   144    1
     3   140   139    1
     4   140   141    2
     5   139   142    1
     6   139   138    1
     7   144   145    1
     8    31    30    2
     9   151   152    2
    10   151   150    1
    11    30    29    1
    12   147   146    1
    13   145   146    2
    14    29    28    1
    15    29    32    1
    16    35    33    1
    17   158   159    1
    18   150   149    1
    19   150   153    1
    20   146   148    1
    21    36    37    1
    22    32    33    1
    23   133   132    2
    24   153   154    1
    25   137   135   ar
    26    33    34    1
    27    37    38    1
    28    37    40    1
    29    38    39    2
    30   121   120    1
    31   163   162    1
    32   159   162    1
    33   159   160    1
    34   132   131    1
    35   122   120    1
    36   116   117    1
    37   161   160    2
    38   135   136   ar
    39   135   134    1
    40   162   164    1
    41    23    22    2
    42   154   155    1
    43   120   117    1
    44    42    40    1
    45    40    41    1
    46   134   131    1
    47   117   118    1
    48   119   118    2
    49   131   130    1
    50   155   156    2
    51   155   157   am
    52    15    14    2
    53    22    21    1
    54   118   123   am
    55   130   125   am
    56    48    47    1
    57    21    20    1
    58    21    24    1
    59    14    20   am
    60    14    13    1
    61    47    49    1
    62    47    44    1
    63   125   126    2
    64   125   124    1
    65   123   124    1
    66   123   129    1
    67   115   114    1
    68    13    12    1
    69    13    16    1
    70    43    44    1
    71   124   127    1
    72    24    25    1
    73    18    16    1
    74   129   128    1
    75    44    45    1
    76   165   166    1
    77    19    17    1
    78    16    17    1
    79    25    26    1
    80   114   113    1
    81   172   170    1
    82    45    46    2
    83   170   169    1
    84   127   128    1
    85   106   105   ar
    86   106   104   ar
    87   194   193    1
    88   113   112    1
    89   166   169    1
    90   166   167    1
    91   168   167    2
    92   191   192    2
    93   191   190    1
    94    26    27    1
    95   169   171    1
    96   105   103   ar
    97   104   102   ar
    98     4     3    2
    99   190   193    1
   100   190   189    1
   101   193   195    1
   102   112   111    1
   103   103   101   ar
   104     9    11   ar
   105     9     7   ar
   106   102   101   ar
   107     3     2    1
   108    11    10   ar
   109   111   108    1
   110     7     6   ar
   111   101   100    1
   112   182   181    1
   113    10     8   ar
   114    54    55    1
   115    54    51    1
   116     2     1    1
   117     2     5    1
   118    50    51    1
   119   183   181    1
   120    58    59    1
   121    58    52   am
   122     6     8   ar
   123     6     5    1
   124    59    60    1
   125    99    98    2
   126   181   180    2
   127    55    56    1
   128    51    52    1
   129   108   107    1
   130   108   109    1
   131    98   107   am
   132    98    97    1
   133   100    97    1
   134    52    53    2
   135   109   110    2
   136    60    61    2
   137   173   174    1
   138    97    96    1
   139   180   179    1
   140    57    56    1
   141    88    89    1
   142    88    85    1
   143   179   178    1
   144   178   177    1
   145    87    86    2
   146   202   203    1
   147   202   201    1
   148    84    85    1
   149   203   204    2
   150   186   187    2
   151   186   185    1
   152   204   206    1
   153   204   205    1
   154   174   177    1
   155   174   175    1
   156    85    86    1
   157   188   185    1
   158   176   175    2
   159    68    66    1
   160    95    94    1
   161   185   184    1
   162    82    81    1
   163   201   200    1
   164    67    66    1
   165    93    92    2
   166    66    63    1
   167   200   197    1
   168   218   217    1
   169    94    91    1
   170   196   197    1
   171    74    73    1
   172    74    75    1
   173    83    81    1
   174    81    80    1
   175    90    91    1
   176    62    63    1
   177    73    70    1
   178    92    91    1
   179   197   198    1
   180    63    64    1
   181    75    69    1
   182    65    64    2
   183   217   215   ar
   184   217   216   ar
   185    80    77    1
   186   215   213   ar
   187    77    78    1
   188    77    76    1
   189   199   198    2
   190    70    69    1
   191    70    71    1
   192   216   214   ar
   193    78    79    2
   194   213   212   ar
   195    71    72    2
   196   214   212   ar
   197   212   211    1
   198   211   208    1
   199   207   208    1
   200   208   209    1
   201   209   210    2
