@<TRIPOS>MOLECULE
tmp/1o90A00.pdb
 79 76 0 0 0
SMALL
GASTEIGER

@<TRIPOS>ATOM
      1  N         10.7020   38.6870   52.5810 N.3    14  HIS14      -0.1241
      2  CA        10.5200   37.3890   51.9600 C.3    14  HIS14       0.1621
      3  C         11.8110   36.6170   52.1260 C.2    14  HIS14       0.2264
      4  O         12.8860   37.1300   51.8240 O.2    14  HIS14      -0.2867
      5  CB        10.1460   37.5480   50.4830 C.3    14  HIS14       0.0745
      6  CG         9.6980   36.2790   49.8300 C.ar   14  HIS14       0.0817
      7  ND1       10.5830   35.3930   49.2550 N.ar   14  HIS14      -0.2268
      8  CD2        8.4660   35.7480   49.6460 C.ar   14  HIS14       0.1154
      9  CE1        9.9160   34.3720   48.7450 C.ar   14  HIS14       0.1986
     10  NE2        8.6280   34.5660   48.9690 N.ar   14  HIS14      -0.2212
     11  N          7.8240   40.8440   55.6840 N.3   152  ASP152     -0.1225
     12  CA         7.4200   39.9190   54.6290 C.3   152  ASP152      0.1805
     13  C          6.1120   40.2940   53.9540 C.2   152  ASP152      0.2598
     14  O          5.0920   40.5040   54.6080 O.2   152  ASP152     -0.2718
     15  CB         7.3430   38.4950   55.1760 C.3   152  ASP152      0.1424
     16  CG         7.2570   37.4410   54.0800 C.2   152  ASP152      0.3668
     17  OD1        7.4500   37.7840   52.8950 O.co2 152  ASP152     -0.2456
     18  OD2        7.0110   36.2570   54.3960 O.co2 152  ASP152     -0.2456
     19  N          6.1570   40.3300   52.6240 N.am  153  SER153     -0.1938
     20  CA         5.0020   40.6580   51.8090 C.3   153  SER153      0.2055
     21  C          5.1390   40.0880   50.4020 C.2   153  SER153      0.2642
     22  O          6.2430   39.7670   49.9640 O.2   153  SER153     -0.2714
     23  CB         4.8410   42.1680   51.7190 C.3   153  SER153      0.2130
     24  OG         5.9700   42.7480   51.0960 O.3   153  SER153     -0.2179
     25  N          4.0110   39.9750   49.7050 N.am  154  LYS154     -0.1977
     26  CA         3.9710   39.4660   48.3350 C.3   154  LYS154      0.1596
     27  C          2.9520   40.2860   47.5640 C.2   154  LYS154      0.2287
     28  O          1.8700   40.5860   48.0710 O.2   154  LYS154     -0.2864
     29  CB         3.5800   37.9860   48.3020 C.3   154  LYS154      0.0298
     30  CG         3.5100   37.4000   46.8930 C.3   154  LYS154      0.0038
     31  CD         2.9780   35.9770   46.9140 C.3   154  LYS154      0.0206
     32  CE         2.7800   35.4350   45.5050 C.3   154  LYS154      0.1093
     33  NZ         2.0930   34.1090   45.4790 N.3   154  LYS154     -0.1314
     34  N         -0.4150   40.5390   49.9230 N.3   179  SER179     -0.1217
     35  CA        -0.3670   39.8700   51.2090 C.3   179  SER179      0.1889
     36  C          0.8300   40.4070   51.9570 C.2   179  SER179      0.2288
     37  O          1.9350   40.4440   51.4270 O.2   179  SER179     -0.2866
     38  CB        -0.2060   38.3650   51.0100 C.3   179  SER179      0.2089
     39  OG        -1.2570   37.8420   50.2180 O.3   179  SER179     -0.2183
     40  N         -5.6130   35.0230   52.2040 N.3   220  SER220     -0.1202
     41  CA        -5.4980   33.8690   53.0890 C.3   220  SER220      0.2020
     42  C         -5.7160   34.2530   54.5480 C.2   220  SER220      0.2619
     43  O         -5.2480   33.5590   55.4620 O.2   220  SER220     -0.2717
     44  CB        -4.1060   33.2480   52.9250 C.3   220  SER220      0.2103
     45  OG        -3.8120   33.0160   51.5540 O.3   220  SER220     -0.2182
     46  N         -6.4040   35.3680   54.7630 N.am  221  GLY221     -0.1942
     47  CA        -6.6680   35.8200   56.1210 C.3   221  GLY221      0.2014
     48  C         -5.4760   36.4210   56.8530 C.2   221  GLY221      0.2639
     49  O         -4.9250   37.4290   56.4200 O.2   221  GLY221     -0.2714
     50  N         -5.0550   35.7880   57.9410 N.am  222  ARG222     -0.1963
     51  CA        -3.9480   36.3040   58.7290 C.3   222  ARG222      0.1729
     52  C         -2.5850   35.7830   58.2380 C.2   222  ARG222      0.2616
     53  O         -2.4840   34.7160   57.6250 O.2   222  ARG222     -0.2715
     54  CB        -4.1600   35.9680   60.2100 C.3   222  ARG222      0.0348
     55  CG        -5.5140   36.4600   60.7320 C.3   222  ARG222      0.0492
     56  CD        -5.4520   37.8740   61.3110 C.3   222  ARG222      0.2205
     57  NE        -4.7040   37.9270   62.5700 N.pl3 222  ARG222     -0.0865
     58  CZ        -4.5550   39.0250   63.3170 C.cat 222  ARG222      0.5346
     59  NH1       -5.0990   40.1900   62.9480 N.pl3 222  ARG222      0.1354
     60  NH2       -3.8650   39.0500   64.4640 N.pl3 222  ARG222      0.1354
     61  N         -1.6040   36.6050   58.5500 N.am  223  PHE223     -0.1974
     62  CA        -0.1780   36.4250   58.2210 C.3   223  PHE223      0.1639
     63  C          0.5630   37.1940   59.3240 C.2   223  PHE223      0.2290
     64  O          1.1450   38.2540   59.0900 O.2   223  PHE223     -0.2864
     65  CB         0.0420   37.0350   56.8330 C.3   223  PHE223      0.0560
     66  CG         1.4610   36.9080   56.2890 C.ar  223  PHE223     -0.0200
     67  CD1        2.5100   36.5090   57.1240 C.ar  223  PHE223     -0.0042
     68  CD2        1.7030   37.2020   54.9440 C.ar  223  PHE223     -0.0042
     69  CE1        3.8070   36.3970   56.6050 C.ar  223  PHE223     -0.0003
     70  CE2        2.9970   37.0890   54.4260 C.ar  223  PHE223     -0.0003
     71  CZ         4.0500   36.6860   55.2560 C.ar  223  PHE223     -0.0000
     72  N          4.1030   34.6730   60.5340 N.3   226  GLY226     -0.1210
     73  CA         4.6440   34.0610   59.3340 C.3   226  GLY226      0.1956
     74  C          6.1320   34.3160   59.2060 C.2   226  GLY226      0.2612
     75  O          6.9490   33.4100   59.4050 O.2   226  GLY226     -0.2717
     76  N          6.4840   35.5720   58.9160 N.am  227  GLY227     -0.1956
     77  CA         7.8830   35.9580   58.7860 C.3   227  GLY227      0.1869
     78  C          8.7060   35.1670   57.7850 C.2   227  GLY227      0.2309
     79  O          8.1460   34.3870   57.0050 O.2   227  GLY227     -0.2863
@<TRIPOS>BOND
     1    33    32    1
     2    32    31    1
     3    30    31    1
     4    30    29    1
     5    27    28    2
     6    27    26    1
     7    29    26    1
     8    26    25    1
     9     9    10   ar
    10     9     7   ar
    11    10     8   ar
    12     7     6   ar
    13     8     6   ar
    14    25    21   am
    15     6     5    1
    16    34    35    1
    17    22    21    2
    18    39    38    1
    19    21    20    1
    20     5     2    1
    21    38    35    1
    22    24    23    1
    23    35    36    1
    24    37    36    2
    25    45    44    1
    26    23    20    1
    27    20    19    1
    28     4     3    2
    29     2     3    1
    30     2     1    1
    31    40    41    1
    32    19    13   am
    33    17    16   ar
    34    44    41    1
    35    41    42    1
    36    13    14    2
    37    13    12    1
    38    16    18   ar
    39    16    15    1
    40    70    68   ar
    41    70    71   ar
    42    42    46   am
    43    42    43    2
    44    12    15    1
    45    12    11    1
    46    46    47    1
    47    68    66   ar
    48    71    69   ar
    49    47    48    1
    50    66    65    1
    51    66    67   ar
    52    49    48    2
    53    69    67   ar
    54    65    62    1
    55    48    50   am
    56    79    78    2
    57    53    52    2
    58    78    77    1
    59    50    51    1
    60    62    61    1
    61    62    63    1
    62    52    61   am
    63    52    51    1
    64    51    54    1
    65    77    76    1
    66    76    74   am
    67    64    63    2
    68    74    73    1
    69    74    75    2
    70    73    72    1
    71    54    55    1
    72    55    56    1
    73    56    57    1
    74    57    58    2
    75    59    58    1
    76    58    60    1
