@<TRIPOS>MOLECULE
tmp/1o96A00.pdb
 137 130 0 0 0
SMALL
GASTEIGER

@<TRIPOS>ATOM
      1  N         12.8620   23.1880   84.7310 N.3     6  ALA6       -0.1231
      2  CA        13.8560   22.2270   84.3820 C.3     6  ALA6        0.1694
      3  C         14.9530   22.4780   85.3520 C.2     6  ALA6        0.2592
      4  O         15.3500   23.7070   85.5760 O.2     6  ALA6       -0.2718
      5  CB        14.3350   22.5120   83.0720 C.3     6  ALA6        0.0304
      6  N         15.4620   21.3680   85.9340 N.am    7  VAL7       -0.1966
      7  CA        16.5190   21.4320   86.9660 C.3     7  VAL7        0.1727
      8  C         17.6280   20.4340   86.7620 C.2     7  VAL7        0.2616
      9  O         17.3670   19.3160   86.3050 O.2     7  VAL7       -0.2715
     10  CB        15.9970   21.1670   88.3450 C.3     7  VAL7        0.0290
     11  CG1       14.9640   22.1800   88.7550 C.3     7  VAL7        0.0023
     12  CG2       15.4150   19.7870   88.4040 C.3     7  VAL7        0.0023
     13  N         18.8660   20.8630   87.1010 N.am    8  LYS8       -0.1974
     14  CA        20.1230   20.0720   86.9710 C.3     8  LYS8        0.1639
     15  C         20.8160   19.8650   88.2840 C.2     8  LYS8        0.2290
     16  O         20.9690   20.7910   89.0500 O.2     8  LYS8       -0.2864
     17  CB        21.1130   20.7290   86.0170 C.3     8  LYS8        0.0554
     18  CG        22.1400   19.7920   85.3240 C.2     8  LYS8       -0.0270
     19  CD        23.4860   20.4450   84.9260 C.2     8  LYS8       -0.0102
     20  CE        24.5900   19.4650   84.4490 C.3     8  LYS8        0.1350
     21  NZ        25.8940   20.1000   83.8740 N.3     8  LYS8       -0.1262
     22  N         21.6850   22.6680   91.0530 N.3    35  ASN35      -0.1240
     23  CA        22.3020   23.8330   90.4110 C.3    35  ASN35       0.1653
     24  C         21.9330   25.2070   90.9890 C.2    35  ASN35       0.2266
     25  O         20.7820   25.5580   91.1950 O.2    35  ASN35      -0.2867
     26  CB        21.9850   23.8330   88.9430 C.3    35  ASN35       0.1155
     27  CG        22.4220   25.1350   88.2450 C.2    35  ASN35       0.2627
     28  OD1       23.5880   25.5400   88.2630 O.2    35  ASN35      -0.2716
     29  ND2       21.4730   25.7760   87.6070 N.am   35  ASN35      -0.0877
     30  N         18.8380   27.0980   89.7640 N.3    38  ASP38      -0.1239
     31  CA        17.5300   26.4800   89.7680 C.3    38  ASP38       0.1674
     32  C         16.6920   26.8880   90.9950 C.2    38  ASP38       0.2266
     33  O         15.4420   26.8950   90.9570 O.2    38  ASP38      -0.2867
     34  CB        17.7250   24.9740   89.6910 C.3    38  ASP38       0.1410
     35  CG        18.3200   24.5240   88.3200 C.2    38  ASP38       0.3668
     36  OD1       18.5000   25.3570   87.4250 O.co2  38  ASP38      -0.2456
     37  OD2       18.5920   23.3560   87.9820 O.co2  38  ASP38      -0.2456
     38  N         11.6600   18.9170   86.5420 N.3    61  VAL61      -0.1231
     39  CA        11.8910   17.8110   85.6980 C.3    61  VAL61       0.1692
     40  C         13.3420   17.8020   85.4640 C.2    61  VAL61       0.2593
     41  O         13.9410   18.8400   85.2150 O.2    61  VAL61      -0.2718
     42  CB        11.2920   17.9960   84.3320 C.3    61  VAL61       0.0266
     43  CG1       11.8310   16.8930   83.4070 C.3    61  VAL61       0.0020
     44  CG2        9.7580   18.0480   84.3550 C.3    61  VAL61       0.0020
     45  N         13.9070   16.5950   85.5110 N.am   62  SER62      -0.1938
     46  CA        15.3350   16.4580   85.4620 C.3    62  SER62       0.2055
     47  C         15.7570   15.3400   84.6320 C.2    62  SER62       0.2642
     48  O         15.2020   14.2370   84.7010 O.2    62  SER62      -0.2714
     49  CB        15.8920   16.2400   86.8470 C.3    62  SER62       0.2130
     50  OG        17.2500   16.6370   86.8160 O.3    62  SER62      -0.2179
     51  N         16.7770   15.6090   83.8480 N.am   63  VAL63      -0.1977
     52  CA        17.3420   14.5290   83.1180 C.3    63  VAL63       0.1596
     53  C         18.6070   14.1300   83.7700 C.2    63  VAL63       0.2287
     54  O         19.5700   14.8770   83.6990 O.2    63  VAL63      -0.2864
     55  CB        17.6280   14.9040   81.7610 C.3    63  VAL63       0.0276
     56  CG1       17.8780   13.6490   80.9750 C.3    63  VAL63       0.0022
     57  CG2       16.4370   15.5180   81.2280 C.3    63  VAL63       0.0022
     58  N         20.3980   17.2590   75.6530 N.3    99  VAL99      -0.1245
     59  CA        19.4950   17.4420   76.7710 C.3    99  VAL99       0.1561
     60  C         18.3160   18.2930   76.3490 C.2    99  VAL99       0.2260
     61  O         17.1780   18.0650   76.7820 O.2    99  VAL99      -0.2867
     62  CB        20.1740   18.0030   78.0300 C.3    99  VAL99       0.0252
     63  CG1       19.1150   18.3680   79.1320 C.3    99  VAL99       0.0019
     64  CG2       21.2180   17.0180   78.4950 C.3    99  VAL99       0.0019
     65  N         14.5100   17.0330   77.1000 N.3   103  LEU103     -0.1245
     66  CA        13.6240   17.9320   77.8230 C.3   103  LEU103      0.1561
     67  C         12.3720   18.2740   76.9870 C.2   103  LEU103      0.2260
     68  O         11.2410   18.2070   77.4850 O.2   103  LEU103     -0.2867
     69  CB        14.3600   19.1900   78.2070 C.3   103  LEU103      0.0270
     70  CG        15.3210   19.0850   79.3590 C.3   103  LEU103      0.0019
     71  CD1       15.8670   20.4320   79.6600 C.3   103  LEU103      0.0001
     72  CD2       14.5870   18.6190   80.5170 C.3   103  LEU103      0.0001
     73  N         14.1130   27.8060   82.9790 N.3   117  ALA117     -0.1231
     74  CA        15.4680   27.2380   83.0200 C.3   117  ALA117      0.1694
     75  C         16.4710   28.1780   83.7160 C.2   117  ALA117      0.2593
     76  O         16.1350   29.2920   84.1030 O.2   117  ALA117     -0.2718
     77  CB        15.9110   26.9320   81.7020 C.3   117  ALA117      0.0304
     78  N         17.7010   27.7170   83.9160 N.am  118  GLY118     -0.1942
     79  CA        18.6780   28.4970   84.6600 C.3   118  GLY118      0.2014
     80  C         19.5510   29.0950   83.5970 C.2   118  GLY118      0.2639
     81  O         19.7790   28.4490   82.5760 O.2   118  GLY118     -0.2714
     82  N         20.0180   30.3290   83.7980 N.am  119  VAL119     -0.1963
     83  CA        20.9490   30.9940   82.8520 C.3   119  VAL119      0.1727
     84  C         21.9670   29.9620   82.5230 C.2   119  VAL119      0.2616
     85  O         22.0720   29.6250   81.4230 O.2   119  VAL119     -0.2715
     86  CB        21.6620   32.3000   83.3940 C.3   119  VAL119      0.0290
     87  CG1       22.6350   32.7880   82.4010 C.3   119  VAL119      0.0023
     88  CG2       20.6580   33.4020   83.6670 C.3   119  VAL119      0.0023
     89  N         22.6710   29.4090   83.5000 N.am  120  GLN120     -0.1963
     90  CA        23.5810   28.3410   83.1410 C.3   120  GLN120      0.1733
     91  C         23.6570   27.2540   84.2420 C.2   120  GLN120      0.2617
     92  O         22.9180   27.3160   85.2440 O.2   120  GLN120     -0.2715
     93  CB        24.9030   28.9840   82.8380 C.3   120  GLN120      0.0408
     94  CG        25.1500   30.0410   83.7880 C.3   120  GLN120      0.0908
     95  CD        26.5910   30.3500   83.9560 C.2   120  GLN120      0.2608
     96  OE1       27.2310   29.8510   84.8770 O.2   120  GLN120     -0.2717
     97  NE2       27.1200   31.1720   83.0780 N.am  120  GLN120     -0.0878
     98  N         24.5010   26.2460   84.0760 N.am  121  SER121     -0.1950
     99  CA        24.8160   25.3970   85.2260 C.3   121  SER121      0.1924
    100  C         26.1660   25.7700   85.7420 C.2   121  SER121      0.2314
    101  O         26.9980   26.1550   84.9800 O.2   121  SER121     -0.2863
    102  CB        24.8990   23.9320   84.8360 C.3   121  SER121      0.2116
    103  OG        25.6110   23.7820   83.6280 O.3   121  SER121     -0.2180
    104  N         27.5890   25.7700   80.3080 N.3   126  TYR126     -0.1227
    105  CA        27.3380   25.7650   78.8860 C.3   126  TYR126      0.1736
    106  C         26.5920   27.0460   78.4460 C.2   126  TYR126      0.2595
    107  O         26.8750   27.6670   77.3880 O.2   126  TYR126     -0.2718
    108  CB        26.4580   24.5820   78.5760 C.3   126  TYR126      0.0548
    109  CG        27.1130   23.2440   78.4190 C.ar  126  TYR126     -0.0200
    110  CD1       26.4330   22.1070   78.7640 C.ar  126  TYR126     -0.0009
    111  CD2       28.3710   23.1040   77.8860 C.ar  126  TYR126     -0.0009
    112  CE1       26.9730   20.8990   78.6300 C.ar  126  TYR126      0.0417
    113  CE2       28.9300   21.8800   77.7160 C.ar  126  TYR126      0.0417
    114  CZ        28.2210   20.7650   78.0990 C.ar  126  TYR126      0.1957
    115  OH        28.7700   19.4790   77.9450 O.3   126  TYR126     -0.2866
    116  N         25.6320   27.4030   79.2840 N.am  127  ALA127     -0.1966
    117  CA        24.6420   28.4070   79.0350 C.3   127  ALA127      0.1728
    118  C         23.9550   28.2560   77.7250 C.2   127  ALA127      0.2617
    119  O         23.8140   29.2350   76.9940 O.2   127  ALA127     -0.2715
    120  CB        25.2000   29.7400   79.1740 C.3   127  ALA127      0.0334
    121  N         23.4450   27.0620   77.4630 N.am  128  SER128     -0.1936
    122  CA        22.8010   26.7870   76.1930 C.3   128  SER128      0.2055
    123  C         21.5100   25.9800   76.2320 C.2   128  SER128      0.2644
    124  O         20.6760   26.1360   75.3520 O.2   128  SER128     -0.2714
    125  CB        23.7880   26.0290   75.3530 C.3   128  SER128      0.2130
    126  OG        25.0880   26.5310   75.5730 O.3   128  SER128     -0.2179
    127  N         21.3670   25.0640   77.1990 N.am  129  THR129     -0.1936
    128  CA        20.2090   24.1560   77.2440 C.3   129  THR129      0.2028
    129  C         18.8220   24.8300   77.1300 C.2   129  THR129      0.2642
    130  O         17.9220   24.3620   76.4200 O.2   129  THR129     -0.2714
    131  CB        20.1950   23.3050   78.5380 C.3   129  THR129      0.1808
    132  OG1       21.4770   22.7450   78.8390 O.3   129  THR129     -0.2208
    133  CG2       19.3540   22.1260   78.3130 C.3   129  THR129      0.0379
    134  N         18.6290   25.9230   77.8380 N.am  130  GLY130     -0.1954
    135  CA        17.2320   26.2960   78.0110 C.3   130  GLY130      0.1869
    136  C         16.6990   26.8120   76.7110 C.2   130  GLY130      0.2309
    137  O         15.6190   26.3830   76.2120 O.2   130  GLY130     -0.2863
@<TRIPOS>BOND
     1   124   123    2
     2   125   126    1
     3   125   122    1
     4    58    59    1
     5   122   123    1
     6   122   121    1
     7   137   136    2
     8   123   127   am
     9    60    59    1
    10    60    61    2
    11   130   129    2
    12   136   135    1
    13    59    62    1
    14    67    68    2
    15    67    66    1
    16   119   118    2
    17    65    66    1
    18   129   128    1
    19   129   134   am
    20   127   128    1
    21   128   131    1
    22   107   106    2
    23   121   118   am
    24   113   111   ar
    25   113   114   ar
    26   118   117    1
    27    66    69    1
    28   134   135    1
    29   111   109   ar
    30   115   114    1
    31    62    64    1
    32    62    63    1
    33   114   112   ar
    34    69    70    1
    35   133   131    1
    36   109   108    1
    37   109   110   ar
    38   106   105    1
    39   106   116   am
    40   131   132    1
    41   108   105    1
    42   112   110   ar
    43   105   104    1
    44   117   120    1
    45   117   116    1
    46    70    71    1
    47    70    72    1
    48    56    55    1
    49    57    55    1
    50    85    84    2
    51    77    74    1
    52    55    52    1
    53    87    86    1
    54    84    83    1
    55    84    89   am
    56    81    80    2
    57    93    90    1
    58    93    94    1
    59    83    86    1
    60    83    82    1
    61    73    74    1
    62    74    75    1
    63     5     2    1
    64    97    95   am
    65    52    53    1
    66    52    51    1
    67    90    89    1
    68    90    91    1
    69    86    88    1
    70    43    42    1
    71    80    82   am
    72    80    79    1
    73   103   102    1
    74    54    53    2
    75    75    78   am
    76    75    76    2
    77    94    95    1
    78    51    47   am
    79    21    20    1
    80    78    79    1
    81    95    96    2
    82    98    91   am
    83    98    99    1
    84    91    92    2
    85    42    44    1
    86    42    39    1
    87     2     1    1
    88     2     3    1
    89    20    19    1
    90    47    48    2
    91    47    46    1
    92   102    99    1
    93    19    18    2
    94   101   100    2
    95    41    40    2
    96    99   100    1
    97    18    17    1
    98     3     4    2
    99     3     6   am
   100    46    45    1
   101    46    49    1
   102    40    45   am
   103    40    39    1
   104    39    38    1
   105     6     7    1
   106    17    14    1
   107     9     8    2
   108     8     7    1
   109     8    13   am
   110    50    49    1
   111     7    10    1
   112    14    13    1
   113    14    15    1
   114    36    35   ar
   115    29    27   am
   116    37    35   ar
   117    27    28    2
   118    27    26    1
   119    15    16    2
   120    35    34    1
   121    10    12    1
   122    10    11    1
   123    26    23    1
   124    34    31    1
   125    30    31    1
   126    31    32    1
   127    23    24    1
   128    23    22    1
   129    33    32    2
   130    24    25    2
