@<TRIPOS>MOLECULE
tmp/1o99A00.pdb
 150 142 0 0 0
SMALL
GASTEIGER

@<TRIPOS>ATOM
      1  N         17.7810   78.8990    1.1090 N.3    60  ASN60      -0.1225
      2  CA        17.4400   78.2760    2.3910 C.3    60  ASN60       0.1785
      3  C         16.9610   76.8430    2.1570 C.2    60  ASN60       0.2597
      4  O         16.8490   76.4130    1.0090 O.2    60  ASN60      -0.2718
      5  CB        16.3450   79.0910    3.0660 C.3    60  ASN60       0.1169
      6  CG        15.1110   79.2120    2.1990 C.2    60  ASN60       0.2627
      7  OD1       14.3850   78.2340    1.9950 O.2    60  ASN60      -0.2716
      8  ND2       14.8760   80.4080    1.6590 N.am   60  ASN60      -0.0877
      9  N         16.6600   76.1140    3.2280 N.am   61  ALA61      -0.1979
     10  CA        16.2180   74.7270    3.0930 C.3    61  ALA61       0.1597
     11  C         14.9760   74.4970    2.2260 C.2    61  ALA61       0.2287
     12  O         14.9500   73.5620    1.4350 O.2    61  ALA61      -0.2864
     13  CB        16.0070   74.1080    4.4600 C.3    61  ALA61       0.0319
     14  N         13.1480   84.8860    3.9670 N.3   121  VAL121     -0.1231
     15  CA        13.0360   83.4330    4.0120 C.3   121  VAL121      0.1692
     16  C         11.6120   82.9740    4.3330 C.2   121  VAL121      0.2592
     17  O         11.0590   82.1190    3.6400 O.2   121  VAL121     -0.2718
     18  CB        14.0110   82.8400    5.0550 C.3   121  VAL121      0.0266
     19  CG1       13.8580   81.3230    5.1260 C.3   121  VAL121      0.0020
     20  CG2       15.4390   83.2190    4.6860 C.3   121  VAL121      0.0020
     21  N         11.0290   83.5470    5.3840 N.am  122  HIS122     -0.1976
     22  CA         9.6790   83.1950    5.8090 C.3   122  HIS122      0.1656
     23  C          8.7130   84.3300    5.5420 C.2   122  HIS122      0.2291
     24  O          7.4960   84.1310    5.5260 O.2   122  HIS122     -0.2864
     25  CB         9.6610   82.8850    7.3030 C.3   122  HIS122      0.0771
     26  CG        10.3940   81.6360    7.6690 C.ar  122  HIS122      0.0820
     27  ND1        9.7800   80.4010    7.7200 N.ar  122  HIS122     -0.2267
     28  CD2       11.7000   81.4210    7.9600 C.ar  122  HIS122      0.1154
     29  CE1       10.6760   79.4810    8.0260 C.ar  122  HIS122      0.1986
     30  NE2       11.8490   80.0740    8.1760 N.ar  122  HIS122     -0.2212
     31  N         17.3090   85.5730   13.1800 N.3   152  ARG152     -0.1231
     32  CA        17.8270   84.3400   12.6010 C.3   152  ARG152      0.1694
     33  C         18.1160   84.4910   11.1060 C.2   152  ARG152      0.2592
     34  O         19.0950   83.9400   10.5960 O.2   152  ARG152     -0.2718
     35  CB        16.8230   83.2100   12.8460 C.3   152  ARG152      0.0321
     36  CG        17.3780   81.8000   12.7160 C.3   152  ARG152      0.0489
     37  CD        16.2750   80.8090   13.0690 C.3   152  ARG152      0.2205
     38  NE        16.6120   79.3990   12.8430 N.pl3 152  ARG152     -0.0865
     39  CZ        17.3090   78.6320   13.6790 C.cat 152  ARG152      0.5346
     40  NH1       17.7670   79.1300   14.8210 N.pl3 152  ARG152      0.1354
     41  NH2       17.5240   77.3550   13.3820 N.pl3 152  ARG152      0.1354
     42  N         17.2620   85.2310   10.4050 N.am  153  ASP153     -0.1974
     43  CA        17.4540   85.4570    8.9700 C.3   153  ASP153      0.1709
     44  C         18.1130   86.8130    8.7750 C.2   153  ASP153      0.2293
     45  O         18.4480   87.2160    7.6560 O.2   153  ASP153     -0.2864
     46  CB        16.1200   85.4210    8.2170 C.3   153  ASP153      0.1436
     47  CG        15.4480   84.0690    8.2950 C.2   153  ASP153      0.3671
     48  OD1       16.1420   83.0900    8.6320 O.co2 153  ASP153     -0.2456
     49  OD2       14.2340   83.9830    8.0120 O.co2 153  ASP153     -0.2456
     50  N         10.5490   84.4860   17.2890 N.3   184  ARG184     -0.1245
     51  CA        10.1490   83.4150   16.3730 C.3   184  ARG184      0.1563
     52  C         10.3020   82.0280   16.9940 C.2   184  ARG184      0.2260
     53  O          9.7740   81.0390   16.4820 O.2   184  ARG184     -0.2867
     54  CB        10.9620   83.4980   15.0800 C.3   184  ARG184      0.0307
     55  CG        12.4610   83.5700   15.2960 C.3   184  ARG184      0.0489
     56  CD        13.1840   83.6790   13.9690 C.3   184  ARG184      0.2205
     57  NE        12.8460   82.5620   13.0980 N.pl3 184  ARG184     -0.0865
     58  CZ        13.2280   82.4510   11.8310 C.cat 184  ARG184      0.5346
     59  NH1       13.9740   83.3930   11.2650 N.pl3 184  ARG184      0.1354
     60  NH2       12.8490   81.3940   11.1220 N.pl3 184  ARG184      0.1354
     61  N          8.5980   74.6140   14.7490 N.3   190  ARG190     -0.1245
     62  CA         8.2540   73.5620   13.8050 C.3   190  ARG190      0.1563
     63  C          8.5850   72.1900   14.3860 C.2   190  ARG190      0.2260
     64  O          8.4820   71.1810   13.6970 O.2   190  ARG190     -0.2867
     65  CB         9.0170   73.7650   12.4910 C.3   190  ARG190      0.0307
     66  CG        10.5080   73.4800   12.5710 C.3   190  ARG190      0.0489
     67  CD        11.2460   73.9550   11.3200 C.3   190  ARG190      0.2205
     68  NE        12.6790   73.6700   11.3820 N.pl3 190  ARG190     -0.0865
     69  CZ        13.5870   74.1850   10.5550 C.cat 190  ARG190      0.5346
     70  NH1       13.2160   75.0200    9.5900 N.pl3 190  ARG190      0.1354
     71  NH2       14.8720   73.8660   10.6910 N.pl3 190  ARG190      0.1354
     72  N          6.2620   80.7070    3.9570 N.3   260  ARG260     -0.1245
     73  CA         6.9620   79.4250    4.0160 C.3   260  ARG260      0.1563
     74  C          6.1930   78.6260    5.0590 C.2   260  ARG260      0.2260
     75  O          6.1040   79.0350    6.2170 O.2   260  ARG260     -0.2867
     76  CB         8.4130   79.6300    4.4330 C.3   260  ARG260      0.0307
     77  CG         9.1770   78.3420    4.4780 C.3   260  ARG260      0.0489
     78  CD        10.6490   78.5730    4.7340 C.3   260  ARG260      0.2205
     79  NE        11.2070   77.4510    5.4770 N.pl3 260  ARG260     -0.0865
     80  CZ        12.5030   77.2210    5.6350 C.cat 260  ARG260      0.5346
     81  NH1       13.3970   78.0370    5.0870 N.pl3 260  ARG260      0.1354
     82  NH2       12.9000   76.1810    6.3620 N.pl3 260  ARG260      0.1354
     83  N          7.1970   76.5300    9.4530 N.3   263  ARG263     -0.1245
     84  CA         7.0770   77.1690   10.7590 C.3   263  ARG263      0.1563
     85  C          5.7490   77.8970   10.9300 C.2   263  ARG263      0.2260
     86  O          5.5500   78.6130   11.9140 O.2   263  ARG263     -0.2867
     87  CB         8.2100   78.1640   10.9860 C.3   263  ARG263      0.0307
     88  CG         9.5560   77.5460   11.2840 C.3   263  ARG263      0.0489
     89  CD        10.6150   78.6410   11.4680 C.3   263  ARG263      0.2205
     90  NE        11.9410   78.0960   11.7260 N.pl3 263  ARG263     -0.0865
     91  CZ        12.2570   77.3680   12.7940 C.cat 263  ARG263      0.5346
     92  NH1       11.3370   77.0970   13.7110 N.pl3 263  ARG263      0.1354
     93  NH2       13.4930   76.9120   12.9490 N.pl3 263  ARG263      0.1354
     94  N         15.4010   68.6510    9.9140 N.3   335  LYS335     -0.1245
     95  CA        15.3130   68.6900    8.4620 C.3   335  LYS335      0.1561
     96  C         14.4190   67.5890    7.8910 C.2   335  LYS335      0.2260
     97  O         14.3780   67.3740    6.6820 O.2   335  LYS335     -0.2867
     98  CB        16.7160   68.6070    7.8480 C.3   335  LYS335      0.0271
     99  CG        17.6480   69.7670    8.2300 C.3   335  LYS335      0.0035
    100  CD        17.1130   71.1130    7.7840 C.3   335  LYS335      0.0206
    101  CE        17.9630   72.2460    8.3210 C.3   335  LYS335      0.1093
    102  NZ        17.4440   73.5770    7.8950 N.3   335  LYS335     -0.1314
    103  N         12.1490   68.7450    5.1230 N.3   338  HIS338     -0.1241
    104  CA        12.7970   69.0550    3.8630 C.3   338  HIS338      0.1621
    105  C         13.0670   67.8580    2.9770 C.2   338  HIS338      0.2264
    106  O         12.8330   67.9210    1.7710 O.2   338  HIS338     -0.2867
    107  CB        14.0630   69.8550    4.1520 C.3   338  HIS338      0.0745
    108  CG        13.8070   71.0180    5.0520 C.ar  338  HIS338      0.0817
    109  ND1       13.8010   70.9030    6.4260 N.ar  338  HIS338     -0.2268
    110  CD2       13.3870   72.2760    4.7770 C.ar  338  HIS338      0.1154
    111  CE1       13.3830   72.0370    6.9590 C.ar  338  HIS338      0.1986
    112  NE2       13.1240   72.8870    5.9800 N.ar  338  HIS338     -0.2212
    113  N         23.9800   73.8170    9.2900 N.3   402  ASP402     -0.1239
    114  CA        22.9850   74.8830    9.3070 C.3   402  ASP402      0.1674
    115  C         22.4230   75.1480   10.7070 C.2   402  ASP402      0.2266
    116  O         22.3600   76.2960   11.1540 O.2   402  ASP402     -0.2867
    117  CB        21.8360   74.5330    8.3490 C.3   402  ASP402      0.1410
    118  CG        20.7440   75.5760    8.3440 C.2   402  ASP402      0.3668
    119  OD1       20.9110   76.6150    7.6720 O.co2 402  ASP402     -0.2456
    120  OD2       19.7170   75.3570    9.0240 O.co2 402  ASP402     -0.2456
    121  N         23.4990   78.4990   12.7020 N.3   406  HIS406     -0.1241
    122  CA        22.5350   79.5520   12.9720 C.3   406  HIS406      0.1621
    123  C         22.8180   80.2060   14.3250 C.2   406  HIS406      0.2264
    124  O         22.2830   81.2750   14.6230 O.2   406  HIS406     -0.2867
    125  CB        21.1020   78.9990   12.9420 C.3   406  HIS406      0.0745
    126  CG        20.4520   79.0560   11.5890 C.ar  406  HIS406      0.0817
    127  ND1       20.2530   80.2400   10.9060 N.ar  406  HIS406     -0.2268
    128  CD2       19.9400   78.0800   10.7990 C.ar  406  HIS406      0.1154
    129  CE1       19.6480   79.9890    9.7600 C.ar  406  HIS406      0.1986
    130  NE2       19.4460   78.6850    9.6700 N.ar  406  HIS406     -0.2212
    131  N         22.3420   75.1170    0.5650 N.3   444  HIS444     -0.1241
    132  CA        22.6170   76.5490    0.6900 C.3   444  HIS444      0.1621
    133  C         23.7650   76.7830    1.6800 C.2   444  HIS444      0.2264
    134  O         24.1830   75.8630    2.3850 O.2   444  HIS444     -0.2867
    135  CB        21.3660   77.2640    1.1970 C.3   444  HIS444      0.0745
    136  CG        20.9610   76.8430    2.5750 C.ar  444  HIS444      0.0817
    137  ND1       21.6770   77.1980    3.6980 N.ar  444  HIS444     -0.2268
    138  CD2       19.9670   76.0320    3.0060 C.ar  444  HIS444      0.1154
    139  CE1       21.1440   76.6200    4.7590 C.ar  444  HIS444      0.1986
    140  NE2       20.1060   75.9060    4.3670 N.ar  444  HIS444     -0.2212
    141  N         22.1540   82.8350    6.6530 N.3   461  HIS461     -0.1241
    142  CA        22.7130   82.0950    5.5300 C.3   461  HIS461      0.1621
    143  C         23.6280   82.9870    4.6940 C.2   461  HIS461      0.2264
    144  O         23.6730   84.2090    4.8670 O.2   461  HIS461     -0.2867
    145  CB        21.5870   81.5470    4.6390 C.3   461  HIS461      0.0745
    146  CG        20.6700   80.5880    5.3370 C.ar  461  HIS461      0.0817
    147  ND1       19.5390   80.0700    4.7390 N.ar  461  HIS461     -0.2268
    148  CD2       20.7070   80.0620    6.5880 C.ar  461  HIS461      0.1154
    149  CE1       18.9180   79.2730    5.5910 C.ar  461  HIS461      0.1986
    150  NE2       19.6060   79.2500    6.7210 N.ar  461  HIS461     -0.2212
@<TRIPOS>BOND
     1   131   132    1
     2   132   135    1
     3   132   133    1
     4     4     3    2
     5     1     2    1
     6   135   136    1
     7    12    11    2
     8     8     6   am
     9   133   134    2
    10   106   105    2
    11     7     6    2
    12     3     2    1
    13     3     9   am
    14     6     5    1
    15    11    10    1
    16     2     5    1
    17   136   138   ar
    18   136   137   ar
    19   105   104    1
    20   138   140   ar
    21    10     9    1
    22    10    13    1
    23    17    16    2
    24   137   139   ar
    25   104   107    1
    26   104   103    1
    27    72    73    1
    28    14    15    1
    29    15    16    1
    30    15    18    1
    31    73    76    1
    32    73    74    1
    33   107   108    1
    34    16    21   am
    35   140   139   ar
    36    76    77    1
    37    77    78    1
    38   145   146    1
    39   145   142    1
    40    20    18    1
    41   143   144    2
    42   143   142    1
    43    78    79    1
    44   147   146   ar
    45   147   149   ar
    46   110   108   ar
    47   110   112   ar
    48   108   109   ar
    49    18    19    1
    50    74    75    2
    51    81    80    1
    52   146   148   ar
    53    21    22    1
    54    79    80    2
    55    24    23    2
    56   142   141    1
    57    23    22    1
    58   149   150   ar
    59    80    82    1
    60    22    25    1
    61   112   111   ar
    62   109   111   ar
    63   148   150   ar
    64    97    96    2
    65    25    26    1
    66    45    44    2
    67    26    27   ar
    68    26    28   ar
    69   119   118   ar
    70    27    29   ar
    71   100    99    1
    72   100   101    1
    73    98    99    1
    74    98    95    1
    75    96    95    1
    76   102   101    1
    77    28    30   ar
    78    49    47   ar
    79    29    30   ar
    80    46    47    1
    81    46    43    1
    82    47    48   ar
    83   118   117    1
    84   118   120   ar
    85   117   114    1
    86    95    94    1
    87    44    43    1
    88    43    42    1
    89   113   114    1
    90   114   115    1
    91    83    84    1
    92    70    69    1
    93   130   129   ar
    94   130   128   ar
    95   129   127   ar
    96    42    33   am
    97    69    71    1
    98    69    68    2
    99    34    33    2
   100   115   116    2
   101    84    85    1
   102    84    87    1
   103   128   126   ar
   104   127   126   ar
   105    85    86    2
   106    87    88    1
   107    33    32    1
   108    60    58    1
   109    59    58    1
   110    88    89    1
   111    67    68    1
   112    67    66    1
   113    89    90    1
   114   126   125    1
   115    90    91    2
   116    58    57    2
   117    65    66    1
   118    65    62    1
   119    32    35    1
   120    32    31    1
   121   121   122    1
   122    36    35    1
   123    36    37    1
   124    91    93    1
   125    91    92    1
   126    38    37    1
   127    38    39    2
   128   125   122    1
   129   122   123    1
   130    57    56    1
   131    41    39    1
   132    39    40    1
   133    64    63    2
   134    62    63    1
   135    62    61    1
   136    56    55    1
   137   123   124    2
   138    54    55    1
   139    54    51    1
   140    51    52    1
   141    51    50    1
   142    53    52    2
