@<TRIPOS>MOLECULE
tmp/1o9eA00.pdb
 119 109 0 0 0
SMALL
GASTEIGER

@<TRIPOS>ATOM
      1  N         41.0750   41.1750   33.8510 N.3    52  LYS52      -0.1245
      2  CA        41.3260   42.3270   33.0030 C.3    52  LYS52       0.1561
      3  C         42.8260   42.5590   32.8280 C.2    52  LYS52       0.2260
      4  O         43.2890   42.8700   31.7310 O.2    52  LYS52      -0.2867
      5  CB        40.6890   43.5800   33.6020 C.3    52  LYS52       0.0271
      6  CG        40.8120   44.7920   32.7020 C.3    52  LYS52       0.0035
      7  CD        40.4540   46.0890   33.4280 C.3    52  LYS52       0.0206
      8  CE        40.6540   47.3000   32.5220 C.3    52  LYS52       0.1093
      9  NZ        40.3130   48.5730   33.2180 N.3    52  LYS52      -0.1314
     10  N         46.8230   41.3750   25.3680 N.3    59  ARG59      -0.1245
     11  CA        46.2000   42.2220   24.3640 C.3    59  ARG59       0.1563
     12  C         47.1780   43.3000   23.9030 C.2    59  ARG59       0.2260
     13  O         47.2750   43.5910   22.7080 O.2    59  ARG59      -0.2867
     14  CB        44.9130   42.8340   24.9270 C.3    59  ARG59       0.0307
     15  CG        43.6710   42.4970   24.0960 C.3    59  ARG59       0.0489
     16  CD        42.4090   42.3350   24.9450 C.3    59  ARG59       0.2205
     17  NE        41.9990   43.5660   25.6160 N.pl3  59  ARG59      -0.0865
     18  CZ        41.3260   44.5620   25.0440 C.cat  59  ARG59       0.5346
     19  NH1       40.9650   44.4990   23.7730 N.pl3  59  ARG59       0.1354
     20  NH2       41.0180   45.6330   25.7530 N.pl3  59  ARG59       0.1354
     21  N         48.8760   43.6200   20.2160 N.3    63  ARG63      -0.1245
     22  CA        48.8600   44.8390   19.4090 C.3    63  ARG63       0.1563
     23  C         50.2510   45.2530   18.9400 C.2    63  ARG63       0.2260
     24  O         50.4480   45.5750   17.7650 O.2    63  ARG63      -0.2867
     25  CB        48.1860   45.9630   20.1920 C.3    63  ARG63       0.0307
     26  CG        46.7180   45.6640   20.3830 C.3    63  ARG63       0.0489
     27  CD        45.9570   46.6940   21.1680 C.3    63  ARG63       0.2205
     28  NE        44.5400   46.3330   21.1760 N.pl3  63  ARG63      -0.0865
     29  CZ        43.5700   47.0780   21.6970 C.cat  63  ARG63       0.5346
     30  NH1       42.3130   46.6550   21.6470 N.pl3  63  ARG63       0.1354
     31  NH2       43.8540   48.2410   22.2730 N.pl3  63  ARG63       0.1354
     32  N         28.0440   41.3710   30.8630 N.3   125  LYS125     -0.1245
     33  CA        28.9620   42.2740   30.1890 C.3   125  LYS125      0.1561
     34  C         30.2980   41.5670   30.0290 C.2   125  LYS125      0.2260
     35  O         30.8800   41.5700   28.9450 O.2   125  LYS125     -0.2867
     36  CB        29.1460   43.5590   30.9970 C.3   125  LYS125      0.0271
     37  CG        30.2420   44.4660   30.4650 C.3   125  LYS125      0.0035
     38  CD        30.3090   45.7620   31.2500 C.3   125  LYS125      0.0206
     39  CE        31.4480   46.6560   30.7780 C.3   125  LYS125      0.1093
     40  NZ        32.7710   46.1110   31.1620 N.3   125  LYS125     -0.1314
     41  N         32.6020   40.9450   26.8620 N.3   129  ASP129     -0.1239
     42  CA        33.9570   41.4440   26.7780 C.3   129  ASP129      0.1674
     43  C         34.9370   40.3750   26.3180 C.2   129  ASP129      0.2266
     44  O         35.7350   40.6100   25.4040 O.2   129  ASP129     -0.2867
     45  CB        34.4060   41.9960   28.1310 C.3   129  ASP129      0.1410
     46  CG        33.6760   43.2720   28.5150 C.2   129  ASP129      0.3668
     47  OD1       33.2690   44.0220   27.6030 O.co2 129  ASP129     -0.2456
     48  OD2       33.5250   43.5350   29.7270 O.co2 129  ASP129     -0.2456
     49  N         34.6210   39.3330   22.9070 N.3   132  ARG132     -0.1231
     50  CA        35.0720   40.4480   22.0880 C.3   132  ARG132      0.1694
     51  C         36.5740   40.3780   21.9000 C.2   132  ARG132      0.2592
     52  O         37.0800   40.6390   20.8070 O.2   132  ARG132     -0.2718
     53  CB        34.7050   41.7940   22.7150 C.3   132  ARG132      0.0321
     54  CG        35.3330   42.9770   21.9700 C.3   132  ARG132      0.0489
     55  CD        34.5830   44.2680   22.2290 C.3   132  ARG132      0.2205
     56  NE        34.5030   44.5440   23.6580 N.pl3 132  ARG132     -0.0865
     57  CZ        35.4220   45.2120   24.3400 C.cat 132  ARG132      0.5346
     58  NH1       36.4960   45.6930   23.7200 N.pl3 132  ARG132      0.1354
     59  NH2       35.2760   45.3730   25.6460 N.pl3 132  ARG132      0.1354
     60  N         37.2890   40.0330   22.9660 N.am  133  TYR133     -0.1976
     61  CA        38.7320   39.9330   22.8770 C.3   133  TYR133      0.1639
     62  C         39.1200   38.8240   21.9070 C.2   133  TYR133      0.2290
     63  O         40.1540   38.9040   21.2380 O.2   133  TYR133     -0.2864
     64  CB        39.3330   39.6740   24.2560 C.3   133  TYR133      0.0560
     65  CG        38.9750   40.7390   25.2640 C.ar  133  TYR133     -0.0198
     66  CD1       38.8400   42.0750   24.8730 C.ar  133  TYR133     -0.0009
     67  CD2       38.7600   40.4190   26.6030 C.ar  133  TYR133     -0.0009
     68  CE1       38.4960   43.0640   25.7870 C.ar  133  TYR133      0.0417
     69  CE2       38.4130   41.3990   27.5290 C.ar  133  TYR133      0.0417
     70  CZ        38.2810   42.7190   27.1110 C.ar  133  TYR133      0.1957
     71  OH        37.9050   43.6900   28.0100 O.3   133  TYR133     -0.2866
     72  N         30.0670   51.7670   26.8960 N.3   177  LEU177     -0.1231
     73  CA        31.4010   52.0240   26.3750 C.3   177  LEU177      0.1693
     74  C         31.8680   50.8010   25.5580 C.2   177  LEU177      0.2592
     75  O         32.1870   50.9040   24.3710 O.2   177  LEU177     -0.2718
     76  CB        32.3650   52.2730   27.5390 C.3   177  LEU177      0.0284
     77  CG        33.8400   52.5200   27.1980 C.3   177  LEU177      0.0019
     78  CD1       33.9800   53.8630   26.5060 C.3   177  LEU177      0.0001
     79  CD2       34.6840   52.4910   28.4710 C.3   177  LEU177      0.0001
     80  N         31.8850   49.6380   26.1960 N.am  178  ASN178     -0.1974
     81  CA        32.3320   48.4310   25.5260 C.3   178  ASN178      0.1688
     82  C         31.4650   47.9890   24.3730 C.2   178  ASN178      0.2292
     83  O         31.9820   47.5200   23.3630 O.2   178  ASN178     -0.2864
     84  CB        32.4590   47.2980   26.5340 C.3   178  ASN178      0.1181
     85  CG        33.5490   47.5610   27.5380 C.2   178  ASN178      0.2629
     86  OD1       34.0860   48.6690   27.5960 O.2   178  ASN178     -0.2716
     87  ND2       33.8830   46.5560   28.3410 N.am  178  ASN178     -0.0877
     88  N         32.2920   50.1830   21.5490 N.3   181  VAL181     -0.1245
     89  CA        33.6430   49.9660   21.0620 C.3   181  VAL181      0.1561
     90  C         33.5550   48.7120   20.1910 C.2   181  VAL181      0.2260
     91  O         34.2680   48.5750   19.2010 O.2   181  VAL181     -0.2867
     92  CB        34.6320   49.7310   22.2140 C.3   181  VAL181      0.0252
     93  CG1       35.8950   49.0820   21.6840 C.3   181  VAL181      0.0019
     94  CG2       34.9800   51.0490   22.8750 C.3   181  VAL181      0.0019
     95  N         35.0520   48.7900   16.5440 N.3   185  GLU185     -0.1245
     96  CA        36.2420   47.9890   16.2730 C.3   185  GLU185      0.1567
     97  C         36.0490   46.5980   15.6890 C.2   185  GLU185      0.2260
     98  O         36.8770   46.1480   14.9070 O.2   185  GLU185     -0.2867
     99  CB        37.0950   47.8800   17.5370 C.3   185  GLU185      0.0388
    100  CG        37.7100   49.1880   17.9880 C.3   185  GLU185      0.1160
    101  CD        38.5150   49.0440   19.2780 C.2   185  GLU185      0.3649
    102  OE1       39.0330   50.0690   19.7760 O.co2 185  GLU185     -0.2457
    103  OE2       38.6320   47.9090   19.8000 O.co2 185  GLU185     -0.2457
    104  N         35.5860   58.5590   29.0140 N.3   221  LEU221     -0.1245
    105  CA        35.9890   57.6030   27.9920 C.3   221  LEU221      0.1561
    106  C         34.9810   57.6270   26.8400 C.2   221  LEU221      0.2260
    107  O         35.3620   57.5610   25.6730 O.2   221  LEU221     -0.2867
    108  CB        36.0820   56.2000   28.5930 C.3   221  LEU221      0.0270
    109  CG        37.2080   56.0440   29.6200 C.3   221  LEU221      0.0019
    110  CD1       37.0580   54.7440   30.3770 C.3   221  LEU221      0.0001
    111  CD2       38.5440   56.1000   28.9130 C.3   221  LEU221      0.0001
    112  N         35.8670   58.7450   22.9630 N.3   225  ASN225     -0.1240
    113  CA        35.5140   57.8910   21.8370 C.3   225  ASN225      0.1653
    114  C         34.5320   58.5500   20.8800 C.2   225  ASN225      0.2266
    115  O         34.6310   58.3540   19.6750 O.2   225  ASN225     -0.2867
    116  CB        34.9540   56.5550   22.3200 C.3   225  ASN225      0.1155
    117  CG        36.0180   55.6650   22.9140 C.2   225  ASN225      0.2627
    118  OD1       35.7550   54.5170   23.2590 O.2   225  ASN225     -0.2716
    119  ND2       37.2320   56.1920   23.0410 N.am  225  ASN225     -0.0877
@<TRIPOS>BOND
     1    98    97    2
     2    97    96    1
     3    96    95    1
     4    96    99    1
     5    99   100    1
     6    24    23    2
     7   100   101    1
     8    23    22    1
     9    91    90    2
    10   101   102   ar
    11   101   103   ar
    12    22    25    1
    13    22    21    1
    14   115   114    2
    15    90    89    1
    16    25    26    1
    17    26    27    1
    18    52    51    2
    19   114   113    1
    20    89    88    1
    21    89    92    1
    22    27    28    1
    23    28    29    2
    24    63    62    2
    25    30    29    1
    26    93    92    1
    27    29    31    1
    28   113   116    1
    29   113   112    1
    30    51    50    1
    31    51    60   am
    32    62    61    1
    33    54    55    1
    34    54    53    1
    35    50    53    1
    36    50    49    1
    37    92    94    1
    38    55    56    1
    39   116   117    1
    40    13    12    2
    41    61    60    1
    42    61    64    1
    43   117   119   am
    44   117   118    2
    45    83    82    2
    46    56    57    2
    47    58    57    1
    48    19    18    1
    49    12    11    1
    50    15    14    1
    51    15    16    1
    52    64    65    1
    53    57    59    1
    54    11    14    1
    55    11    10    1
    56    75    74    2
    57    82    81    1
    58    66    65   ar
    59    66    68   ar
    60    16    17    1
    61    18    17    2
    62    18    20    1
    63    65    67   ar
    64    44    43    2
    65    81    80    1
    66    81    84    1
    67    74    80   am
    68    74    73    1
    69   107   106    2
    70    68    70   ar
    71    43    42    1
    72    73    72    1
    73    73    76    1
    74    78    77    1
    75    84    85    1
    76    67    69   ar
    77    42    41    1
    78    42    45    1
    79   106   105    1
    80    70    69   ar
    81    70    71    1
    82    77    76    1
    83    77    79    1
    84    85    86    2
    85    85    87   am
    86    47    46   ar
    87   105   108    1
    88   105   104    1
    89    45    46    1
    90    46    48   ar
    91   108   109    1
    92   111   109    1
    93    35    34    2
    94   109   110    1
    95    34    33    1
    96    33    32    1
    97    33    36    1
    98    37    36    1
    99    37    38    1
   100    39    40    1
   101    39    38    1
   102     4     3    2
   103     8     9    1
   104     8     7    1
   105     6     7    1
   106     6     5    1
   107     3     2    1
   108     2     5    1
   109     2     1    1
