@<TRIPOS>MOLECULE
tmp/1o9lA00.pdb
 133 129 0 0 0
SMALL
GASTEIGER

@<TRIPOS>ATOM
      1  N         36.0020    6.1820   16.3320 N.3    87  TYR87      -0.1241
      2  CA        35.6120    6.9990   17.4690 C.3    87  TYR87       0.1605
      3  C         35.1680    6.1390   18.6460 C.2    87  TYR87       0.2264
      4  O         35.5750    6.3700   19.7820 O.2    87  TYR87      -0.2867
      5  CB        34.4750    7.9400   17.0800 C.3    87  TYR87       0.0534
      6  CG        33.8440    8.6470   18.2600 C.ar   87  TYR87      -0.0201
      7  CD1       34.5580    9.5900   19.0060 C.ar   87  TYR87      -0.0009
      8  CD2       32.5370    8.3690   18.6340 C.ar   87  TYR87      -0.0009
      9  CE1       33.9760   10.2360   20.0900 C.ar   87  TYR87       0.0417
     10  CE2       31.9470    9.0030   19.7120 C.ar   87  TYR87       0.0417
     11  CZ        32.6670    9.9370   20.4370 C.ar   87  TYR87       0.1957
     12  OH        32.0610   10.5750   21.5000 O.3    87  TYR87      -0.2866
     13  N         37.1690   13.6870   18.6400 N.3    94  VAL94      -0.1231
     14  CA        36.2770   14.5520   17.8940 C.3    94  VAL94       0.1692
     15  C         35.5440   15.6030   18.7120 C.2    94  VAL94       0.2592
     16  O         34.9480   15.3160   19.7530 O.2    94  VAL94      -0.2718
     17  CB        35.2400   13.7270   17.0850 C.3    94  VAL94       0.0266
     18  CG1       34.7600   12.5740   17.8980 C.3    94  VAL94       0.0020
     19  CG2       34.0620   14.5960   16.6870 C.3    94  VAL94       0.0020
     20  N         35.6200   16.8360   18.2220 N.am   95  GLU95      -0.1966
     21  CA        34.9380   17.9650   18.8330 C.3    95  GLU95       0.1733
     22  C         33.7800   18.3490   17.9230 C.2    95  GLU95       0.2616
     23  O         33.9920   18.9060   16.8440 O.2    95  GLU95      -0.2715
     24  CB        35.8570   19.1690   18.9480 C.3    95  GLU95       0.0429
     25  CG        36.9630   19.0380   19.9510 C.3    95  GLU95       0.1163
     26  CD        37.7380   20.3290   20.0790 C.2    95  GLU95       0.3649
     27  OE1       37.0860   21.3790   20.2950 O.co2  95  GLU95      -0.2457
     28  OE2       38.9860   20.2990   19.9630 O.co2  95  GLU95      -0.2457
     29  N         32.5650   18.0300   18.3480 N.am   96  LEU96      -0.1963
     30  CA        31.3970   18.3800   17.5710 C.3    96  LEU96       0.1728
     31  C         31.0610   19.7960   17.9840 C.2    96  LEU96       0.2616
     32  O         30.7270   20.0650   19.1340 O.2    96  LEU96      -0.2715
     33  CB        30.2270   17.4470   17.8760 C.3    96  LEU96       0.0311
     34  CG        30.3690   16.0200   17.3420 C.3    96  LEU96       0.0022
     35  CD1       29.1620   15.2180   17.7750 C.3    96  LEU96       0.0001
     36  CD2       30.4820   16.0300   15.8180 C.3    96  LEU96       0.0001
     37  N         31.1740   20.7080   17.0320 N.am   97  THR97      -0.1951
     38  CA        30.8920   22.1070   17.2740 C.3    97  THR97       0.1897
     39  C         29.8650   22.5930   16.2410 C.2    97  THR97       0.2313
     40  O         29.9210   22.2190   15.0710 O.2    97  THR97      -0.2863
     41  CB        32.2240   22.8910   17.2100 C.3    97  THR97       0.1794
     42  OG1       32.0160   24.1910   16.6570 O.3    97  THR97      -0.2208
     43  CG2       33.2330   22.1320   16.3660 C.3    97  THR97       0.0378
     44  N         22.7460   24.0400   26.0710 N.3   124  THR124     -0.1203
     45  CA        23.0690   22.8120   25.3570 C.3   124  THR124      0.1994
     46  C         24.3520   22.2050   25.9330 C.2   124  THR124      0.2618
     47  O         25.0370   22.8450   26.7310 O.2   124  THR124     -0.2717
     48  CB        23.2490   23.1650   23.8460 C.3   124  THR124      0.1784
     49  OG1       21.9730   23.1380   23.1960 O.3   124  THR124     -0.2211
     50  CG2       24.2010   22.2360   23.1570 C.3   124  THR124      0.0376
     51  N         24.6650   20.9750   25.5390 N.am  125  LEU125     -0.1965
     52  CA        25.8780   20.3290   25.9990 C.3   125  LEU125      0.1728
     53  C         27.0700   21.1090   25.4780 C.2   125  LEU125      0.2616
     54  O         28.1720   20.9840   26.0100 O.2   125  LEU125     -0.2715
     55  CB        25.9440   18.8800   25.5150 C.3   125  LEU125      0.0311
     56  CG        25.0400   17.8750   26.2350 C.3   125  LEU125      0.0022
     57  CD1       25.2790   16.4880   25.6700 C.3   125  LEU125      0.0001
     58  CD2       25.3440   17.8820   27.7280 C.3   125  LEU125      0.0001
     59  N         26.8600   21.9030   24.4310 N.am  126  VAL126     -0.1977
     60  CA        27.9420   22.7230   23.8880 C.3   126  VAL126      0.1596
     61  C         28.3450   23.6470   25.0330 C.2   126  VAL126      0.2287
     62  O         29.5230   23.8780   25.2860 O.2   126  VAL126     -0.2864
     63  CB        27.4670   23.5670   22.6820 C.3   126  VAL126      0.0276
     64  CG1       28.5480   24.5730   22.2800 C.3   126  VAL126      0.0022
     65  CG2       27.1240   22.6480   21.5200 C.3   126  VAL126      0.0022
     66  N         30.7340   16.2460   27.4120 N.3   131  SER131     -0.1203
     67  CA        30.6090   15.2340   26.3680 C.3   131  SER131      0.2005
     68  C         31.9510   14.5820   26.0580 C.2   131  SER131      0.2461
     69  O         33.0060   15.1750   26.2650 O.2   131  SER131     -0.2732
     70  CB        30.0210   15.8480   25.0970 C.3   131  SER131      0.2103
     71  OG        28.6670   16.2150   25.2980 O.3   131  SER131     -0.2182
     72  N         31.9240   13.3380   25.5620 N.am  132  PRO132     -0.2717
     73  CA        33.1600   12.6260   25.2340 C.3   132  PRO132      0.1535
     74  C         33.8250   12.9920   23.9070 C.2   132  PRO132      0.2598
     75  O         33.3070   12.6960   22.8280 O.2   132  PRO132     -0.2715
     76  CB        32.7320   11.1590   25.2810 C.3   132  PRO132      0.0310
     77  CG        31.3200   11.2170   24.8120 C.3   132  PRO132      0.0237
     78  CD        30.7670   12.4240   25.5350 C.3   132  PRO132      0.0939
     79  N         34.9820   13.6390   23.9980 N.am  133  ILE133     -0.1978
     80  CA        35.7450   14.0010   22.8120 C.3   133  ILE133      0.1596
     81  C         36.5160   12.7440   22.4040 C.2   133  ILE133      0.2287
     82  O         36.8430   12.5530   21.2310 O.2   133  ILE133     -0.2864
     83  CB        36.7600   15.1450   23.1070 C.3   133  ILE133      0.0276
     84  CG1       36.0200   16.4750   23.2670 C.3   133  ILE133      0.0022
     85  CG2       37.7840   15.2530   21.9760 C.3   133  ILE133      0.0022
     86  CD1       36.9260   17.6490   23.5750 C.3   133  ILE133      0.0001
     87  N         34.5410   17.2330   26.9520 N.3   145  SER145     -0.1217
     88  CA        34.4490   18.6140   26.5000 C.3   145  SER145      0.1889
     89  C         34.3330   19.5800   27.6830 C.2   145  SER145      0.2288
     90  O         33.6920   19.2700   28.6900 O.2   145  SER145     -0.2866
     91  CB        33.2440   18.7830   25.5690 C.3   145  SER145      0.2089
     92  OG        32.0360   18.4760   26.2390 O.3   145  SER145     -0.2183
     93  N         31.3710   26.1590   28.2220 N.3   148  ARG148     -0.1245
     94  CA        31.5870   27.4270   27.5430 C.3   148  ARG148      0.1563
     95  C         31.1020   28.4990   28.5000 C.2   148  ARG148      0.2260
     96  O         30.0540   28.3390   29.1260 O.2   148  ARG148     -0.2867
     97  CB        30.7810   27.4860   26.2430 C.3   148  ARG148      0.0307
     98  CG        31.2510   26.5180   25.1670 C.3   148  ARG148      0.0489
     99  CD        32.5890   26.9290   24.6100 C.3   148  ARG148      0.2205
    100  NE        32.9830   26.1150   23.4670 N.pl3 148  ARG148     -0.0865
    101  CZ        33.5160   24.9030   23.5580 C.cat 148  ARG148      0.5346
    102  NH1       33.7190   24.3560   24.7440 N.pl3 148  ARG148      0.1354
    103  NH2       33.8610   24.2450   22.4630 N.pl3 148  ARG148      0.1354
    104  N         18.1890   16.4590   16.6940 N.3   361  TRP361     -0.1227
    105  CA        19.4860   16.3680   16.0300 C.3   361  TRP361      0.1737
    106  C         20.3220   15.2710   16.6770 C.2   361  TRP361      0.2595
    107  O         21.3380   14.8380   16.1240 O.2   361  TRP361     -0.2718
    108  CB        20.2460   17.6990   16.1260 C.3   361  TRP361      0.0564
    109  CG        20.5790   18.0840   17.5310 C.ar  361  TRP361      0.0003
    110  CD1       19.7840   18.7640   18.4100 C.ar  361  TRP361      0.0946
    111  CD2       21.7780   17.7510   18.2500 C.ar  361  TRP361      0.0152
    112  NE1       20.4090   18.8770   19.6310 N.ar  361  TRP361     -0.2442
    113  CE2       21.6380   18.2630   19.5610 C.ar  361  TRP361      0.0810
    114  CE3       22.9590   17.0690   17.9120 C.ar  361  TRP361      0.0012
    115  CZ2       22.6280   18.1120   20.5410 C.ar  361  TRP361      0.0191
    116  CZ3       23.9500   16.9170   18.8890 C.ar  361  TRP361      0.0001
    117  CH2       23.7740   17.4420   20.1850 C.ar  361  TRP361      0.0015
    118  N         19.8940   14.8220   17.8530 N.am  362  MET362     -0.1979
    119  CA        20.6320   13.7850   18.5580 C.3   362  MET362      0.1605
    120  C         19.7720   12.8790   19.4370 C.2   362  MET362      0.2287
    121  O         18.6940   13.2640   19.9030 O.2   362  MET362     -0.2864
    122  CB        21.7260   14.4220   19.4210 C.3   362  MET362      0.0413
    123  CG        22.6280   13.4270   20.1260 C.3   362  MET362      0.0598
    124  SD        23.7650   14.2220   21.2610 S.3   362  MET362     -0.1393
    125  CE        23.2880   13.4900   22.8140 C.3   362  MET362      0.0692
    126  N         25.1410   18.1350   15.5930 N.3   371  MET371     -0.1245
    127  CA        23.9990   19.0290   15.4300 C.3   371  MET371      0.1570
    128  C         23.9510   19.7950   14.1090 C.2   371  MET371      0.2261
    129  O         22.9650   20.4710   13.8350 O.2   371  MET371     -0.2867
    130  CB        23.9420   20.0280   16.5980 C.3   371  MET371      0.0387
    131  CG        25.0810   21.0500   16.6310 C.3   371  MET371      0.0595
    132  SD        26.7350   20.3420   16.8890 S.3   371  MET371     -0.1393
    133  CE        26.7700   20.2480   18.6820 C.3   371  MET371      0.0692
@<TRIPOS>BOND
     1   129   128    2
     2   128   127    1
     3    40    39    2
     4   127   126    1
     5   127   130    1
     6    36    34    1
     7   105   108    1
     8   105   106    1
     9   105   104    1
    10   107   106    2
    11   108   109    1
    12    39    38    1
    13     1     2    1
    14    43    41    1
    15   130   131    1
    16   131   132    1
    17    42    41    1
    18   106   118   am
    19    19    17    1
    20    23    22    2
    21   132   133    1
    22    37    38    1
    23    37    31   am
    24     5     2    1
    25     5     6    1
    26    17    14    1
    27    17    18    1
    28    41    38    1
    29    34    35    1
    30    34    33    1
    31     2     3    1
    32   109   111   ar
    33   109   110   ar
    34    30    33    1
    35    30    31    1
    36    30    29    1
    37   118   119    1
    38    14    13    1
    39    14    15    1
    40   114   111   ar
    41   114   116   ar
    42    22    29   am
    43    22    21    1
    44    31    32    2
    45    20    15   am
    46    20    21    1
    47   111   113   ar
    48     6     8   ar
    49     6     7   ar
    50   110   112   ar
    51   119   122    1
    52   119   120    1
    53     8    10   ar
    54     3     4    2
    55    15    16    2
    56    21    24    1
    57   116   117   ar
    58    24    25    1
    59     7     9   ar
    60   122   123    1
    61   120   121    2
    62   113   112   ar
    63   113   115   ar
    64    10    11   ar
    65    25    26    1
    66    28    26   ar
    67    26    27   ar
    68     9    11   ar
    69   123   124    1
    70   117   115   ar
    71    11    12    1
    72    82    81    2
    73   124   125    1
    74    65    63    1
    75    85    83    1
    76    64    63    1
    77    81    80    1
    78   103   101    1
    79    63    60    1
    80    80    83    1
    81    80    79    1
    82    75    74    2
    83    83    84    1
    84    50    48    1
    85    49    48    1
    86    84    86    1
    87   100   101    2
    88   100    99    1
    89   101   102    1
    90    48    45    1
    91    60    59    1
    92    60    61    1
    93    74    79   am
    94    74    73    1
    95    59    53   am
    96    99    98    1
    97    77    76    1
    98    77    78    1
    99    61    62    2
   100    70    71    1
   101    70    67    1
   102    98    97    1
   103    73    76    1
   104    73    72    1
   105    45    46    1
   106    45    44    1
   107    53    52    1
   108    53    54    2
   109    55    52    1
   110    55    56    1
   111    78    72    1
   112    51    46   am
   113    51    52    1
   114    72    68   am
   115    91    92    1
   116    91    88    1
   117    57    56    1
   118    46    47    2
   119    68    69    2
   120    68    67    1
   121    56    58    1
   122    97    94    1
   123    67    66    1
   124    88    87    1
   125    88    89    1
   126    94    93    1
   127    94    95    1
   128    89    90    2
   129    95    96    2
