@<TRIPOS>MOLECULE
tmp/1o9oB00.pdb
 123 116 0 0 0
SMALL
GASTEIGER

@<TRIPOS>ATOM
      1  N         21.8490   25.5170   38.7020 N.3    62  LYS62      -0.1245
      2  CA        22.9780   24.9010   37.9860 C.3    62  LYS62       0.1561
      3  C         23.2980   25.8140   36.8050 C.2    62  LYS62       0.2260
      4  O         22.3940   26.2150   36.0720 O.2    62  LYS62      -0.2867
      5  CB        22.5900   23.5040   37.4970 C.3    62  LYS62       0.0271
      6  CG        23.7060   22.7520   36.8170 C.3    62  LYS62       0.0035
      7  CD        23.2110   21.4250   36.3100 C.3    62  LYS62       0.0206
      8  CE        24.2980   20.6670   35.5770 C.3    62  LYS62       0.1093
      9  NZ        23.8240   19.3180   35.1770 N.3    62  LYS62      -0.1314
     10  N         27.8810   20.0740   31.2590 N.3   111  ALA111     -0.1231
     11  CA        27.2860   18.9820   32.0230 C.3   111  ALA111      0.1694
     12  C         27.7710   17.5820   31.6650 C.2   111  ALA111      0.2593
     13  O         26.9900   16.6300   31.6980 O.2   111  ALA111     -0.2718
     14  CB        25.7630   19.0460   31.9020 C.3   111  ALA111      0.0304
     15  N         29.0520   17.4450   31.3300 N.am  112  SER112     -0.1938
     16  CA        29.5910   16.1320   30.9990 C.3   112  SER112      0.2055
     17  C         30.5290   15.5900   32.0840 C.2   112  SER112      0.2642
     18  O         30.2810   15.7870   33.2720 O.2   112  SER112     -0.2714
     19  CB        30.3120   16.1660   29.6520 C.3   112  SER112      0.2130
     20  OG        30.5420   14.8440   29.1950 O.3   112  SER112     -0.2179
     21  N         31.6080   14.9280   31.6740 N.am  113  ARG113     -0.1977
     22  CA        32.5540   14.3150   32.6090 C.3   113  ARG113      0.1597
     23  C         33.5620   15.1980   33.3520 C.2   113  ARG113      0.2287
     24  O         33.9140   14.8900   34.4920 O.2   113  ARG113     -0.2864
     25  CB        33.3400   13.2100   31.9020 C.3   113  ARG113      0.0334
     26  CG        32.5300   11.9960   31.4880 C.3   113  ARG113      0.0492
     27  CD        33.4510   10.8970   30.9560 C.3   113  ARG113      0.2205
     28  NE        34.2800   11.3720   29.8500 N.pl3 113  ARG113     -0.0865
     29  CZ        35.3050   10.6990   29.3270 C.cat 113  ARG113      0.5346
     30  NH1       35.6420    9.5070   29.8050 N.pl3 113  ARG113      0.1354
     31  NH2       36.0010   11.2220   28.3240 N.pl3 113  ARG113      0.1354
     32  N         28.6180   14.8360   39.8720 N.3   130  GLY130     -0.1210
     33  CA        28.3940   15.7130   38.7340 C.3   130  GLY130      0.1956
     34  C         27.2400   15.2050   37.8840 C.2   130  GLY130      0.2611
     35  O         26.7970   14.0740   38.0650 O.2   130  GLY130     -0.2717
     36  N         26.7350   16.0220   36.9640 N.am  131  ALA131     -0.1979
     37  CA        27.3380   17.2940   36.5930 C.3   131  ALA131      0.1597
     38  C         26.8090   18.4610   37.4410 C.2   131  ALA131      0.2287
     39  O         27.4140   19.5360   37.4790 O.2   131  ALA131     -0.2864
     40  CB        27.0830   17.5550   35.1260 C.3   131  ALA131      0.0319
     41  N         20.3000   19.2660   36.4880 N.3   150  THR150     -0.1203
     42  CA        19.7410   18.5120   35.3810 C.3   150  THR150      0.1994
     43  C         20.3430   17.1200   35.3530 C.2   150  THR150      0.2618
     44  O         21.3040   16.8310   36.0690 O.2   150  THR150     -0.2717
     45  CB        20.0100   19.1890   34.0200 C.3   150  THR150      0.1784
     46  OG1       21.4220   19.3360   33.8300 O.3   150  THR150     -0.2211
     47  CG2       19.3400   20.5490   33.9570 C.3   150  THR150      0.0376
     48  N         19.7610   16.2570   34.5270 N.am  151  GLN151     -0.1965
     49  CA        20.2370   14.8900   34.3880 C.3   151  GLN151      0.1733
     50  C         20.0300   14.3870   32.9710 C.2   151  GLN151      0.2617
     51  O         18.9230   14.4260   32.4400 O.2   151  GLN151     -0.2715
     52  CB        19.5220   13.9600   35.3820 C.3   151  GLN151      0.0408
     53  CG        19.8780   12.4810   35.2200 C.3   151  GLN151      0.0908
     54  CD        19.5100   11.6380   36.4360 C.2   151  GLN151      0.2608
     55  OE1       19.7800   12.0180   37.5750 O.2   151  GLN151     -0.2717
     56  NE2       18.8770   10.4970   36.1970 N.am  151  GLN151     -0.0878
     57  N         21.1220   13.9400   32.3650 N.am  152  THR152     -0.1937
     58  CA        21.1220   13.3750   31.0210 C.3   152  THR152      0.2028
     59  C         21.4140   11.8950   31.2540 C.2   152  THR152      0.2643
     60  O         20.8120   11.0180   30.6360 O.2   152  THR152     -0.2714
     61  CB        22.2270   14.0070   30.1780 C.3   152  THR152      0.1808
     62  OG1       22.0130   15.4220   30.1280 O.3   152  THR152     -0.2208
     63  CG2       22.2300   13.4410   28.7710 C.3   152  THR152      0.0379
     64  N         22.3340   11.6510   32.1860 N.am  153  GLY153     -0.1939
     65  CA        22.7180   10.3080   32.5750 C.3   153  GLY153      0.2014
     66  C         22.3490   10.0980   34.0390 C.2   153  GLY153      0.2639
     67  O         21.4450    9.3210   34.3470 O.2   153  GLY153     -0.2714
     68  N         23.0370   10.7970   34.9440 N.am  154  GLY154     -0.1939
     69  CA        22.7410   10.6710   36.3650 C.3   154  GLY154      0.2014
     70  C         23.1270   11.8890   37.1920 C.2   154  GLY154      0.2639
     71  O         23.3660   11.7790   38.3980 O.2   154  GLY154     -0.2714
     72  N         23.1550   13.0580   36.5490 N.am  155  SER155     -0.1949
     73  CA        23.5540   14.2990   37.2080 C.3   155  SER155      0.1924
     74  C         22.7280   14.8070   38.3760 C.2   155  SER155      0.2314
     75  O         23.1440   15.7440   39.0570 O.2   155  SER155     -0.2863
     76  CB        23.6860   15.4180   36.1810 C.3   155  SER155      0.2116
     77  OG        24.8440   15.2190   35.4010 O.3   155  SER155     -0.2180
     78  N         22.9560   10.8020   41.3250 N.3   158  ARG158     -0.1245
     79  CA        24.3120   10.4900   41.7740 C.3   158  ARG158      0.1563
     80  C         24.9230   11.5380   42.7140 C.2   158  ARG158      0.2260
     81  O         25.3370   11.2070   43.8220 O.2   158  ARG158     -0.2867
     82  CB        25.2320   10.2650   40.5700 C.3   158  ARG158      0.0307
     83  CG        26.5750    9.6550   40.9410 C.3   158  ARG158      0.0489
     84  CD        27.3560    9.2000   39.7120 C.3   158  ARG158      0.2205
     85  NE        28.1220   10.2740   39.0780 N.pl3 158  ARG158     -0.0865
     86  CZ        27.7450   10.9470   37.9920 C.cat 158  ARG158      0.5346
     87  NH1       26.5940   10.6710   37.3950 N.pl3 158  ARG158      0.1354
     88  NH2       28.5350   11.8880   37.4870 N.pl3 158  ARG158      0.1354
     89  N         22.3470   18.9760   26.0250 N.3   183  TYR183     -0.1241
     90  CA        23.3770   17.9520   25.9420 C.3   183  TYR183      0.1605
     91  C         22.7290   16.9520   24.9750 C.2   183  TYR183      0.2264
     92  O         23.2030   16.7570   23.8530 O.2   183  TYR183     -0.2867
     93  CB        23.5920   17.3270   27.3230 C.3   183  TYR183      0.0534
     94  CG        24.7310   16.3310   27.4380 C.ar  183  TYR183     -0.0201
     95  CD1       25.0990   15.8250   28.6950 C.ar  183  TYR183     -0.0009
     96  CD2       25.4460   15.8920   26.3110 C.ar  183  TYR183     -0.0009
     97  CE1       26.1440   14.9140   28.8350 C.ar  183  TYR183      0.0417
     98  CE2       26.5000   14.9760   26.4390 C.ar  183  TYR183      0.0417
     99  CZ        26.8430   14.4950   27.7090 C.ar  183  TYR183      0.1957
    100  OH        27.8950   13.6130   27.8780 O.3   183  TYR183     -0.2866
    101  N         22.5590    9.4390   23.5560 N.3   277  GLN277     -0.1245
    102  CA        23.2270   10.5540   24.2170 C.3   277  GLN277      0.1566
    103  C         24.3260   11.2360   23.4180 C.2   277  GLN277      0.2260
    104  O         24.2640   12.4430   23.1760 O.2   277  GLN277     -0.2867
    105  CB        23.8170   10.1100   25.5540 C.3   277  GLN277      0.0367
    106  CG        24.5140   11.2430   26.2970 C.3   277  GLN277      0.0905
    107  CD        25.3350   10.7580   27.4770 C.2   277  GLN277      0.2608
    108  OE1       26.3040   10.0260   27.3070 O.2   277  GLN277     -0.2717
    109  NE2       24.9530   11.1690   28.6760 N.am  277  GLN277     -0.0878
    110  N         33.7870   12.4060   38.3950 N.3   356  THR356     -0.1218
    111  CA        32.5690   12.7720   39.1050 C.3   356  THR356      0.1862
    112  C         31.7630   11.5180   39.4200 C.2   356  THR356      0.2287
    113  O         30.6830   11.5920   40.0130 O.2   356  THR356     -0.2866
    114  CB        31.6740   13.7160   38.2710 C.3   356  THR356      0.1770
    115  OG1       31.3460   13.0820   37.0240 O.3   356  THR356     -0.2211
    116  CG2       32.3770   15.0520   38.0250 C.3   356  THR356      0.0375
    117  N         27.9850    7.1610   35.8730 N.3   359  PRO359     -0.2116
    118  CA        26.5190    7.2770   35.8660 C.3   359  PRO359      0.1372
    119  C         25.7800    5.9890   35.4780 C.2   359  PRO359      0.2244
    120  O         24.5500    5.9810   35.4080 O.2   359  PRO359     -0.2868
    121  CB        26.2550    8.3870   34.8380 C.3   359  PRO359      0.0268
    122  CG        27.6020    9.0640   34.6520 C.3   359  PRO359      0.0207
    123  CD        28.5630    7.9230   34.7550 C.3   359  PRO359      0.0892
@<TRIPOS>BOND
     1   104   103    2
     2   103   102    1
     3   101   102    1
     4    92    91    2
     5   102   105    1
     6    91    90    1
     7   105   106    1
     8    90    89    1
     9    90    93    1
    10   106   107    1
    11    96    98   ar
    12    96    94   ar
    13    98    99   ar
    14   108   107    2
    15    93    94    1
    16    94    95   ar
    17   107   109   am
    18    99   100    1
    19    99    97   ar
    20    31    29    1
    21    95    97   ar
    22    63    61    1
    23    20    19    1
    24    29    30    1
    25    29    28    2
    26    19    16    1
    27    28    27    1
    28    62    61    1
    29    61    58    1
    30    60    59    2
    31    27    26    1
    32    16    15    1
    33    16    17    1
    34    58    59    1
    35    58    57    1
    36    59    64   am
    37    10    11    1
    38    15    12   am
    39    26    25    1
    40    12    13    2
    41    12    11    1
    42    21    17   am
    43    21    22    1
    44    25    22    1
    45    14    11    1
    46    17    18    2
    47    64    65    1
    48    57    50   am
    49    51    50    2
    50    65    66    1
    51    22    23    1
    52    50    49    1
    53    23    24    2
    54    46    45    1
    55    47    45    1
    56    45    42    1
    57    66    67    2
    58    66    68   am
    59    49    48    1
    60    49    52    1
    61    48    43   am
    62   122   123    1
    63   122   121    1
    64   123   117    1
    65   121   118    1
    66    68    69    1
    67    40    37    1
    68     9     8    1
    69    53    52    1
    70    53    54    1
    71    43    42    1
    72    43    44    2
    73    42    41    1
    74    77    76    1
    75   120   119    2
    76   119   118    1
    77     8     7    1
    78   118   117    1
    79     4     3    2
    80    76    73    1
    81    56    54   am
    82     7     6    1
    83    69    70    1
    84    54    55    2
    85    72    70   am
    86    72    73    1
    87    37    36    1
    88    37    38    1
    89     3     2    1
    90     6     5    1
    91    36    34   am
    92   115   114    1
    93    70    71    2
    94    73    74    1
    95    87    86    1
    96    38    39    2
    97    88    86    1
    98     5     2    1
    99    34    35    2
   100    34    33    1
   101     2     1    1
   102    86    85    2
   103   116   114    1
   104   114   111    1
   105    74    75    2
   106   110   111    1
   107    33    32    1
   108    85    84    1
   109   111   112    1
   110   112   113    2
   111    84    83    1
   112    82    83    1
   113    82    79    1
   114    78    79    1
   115    79    80    1
   116    80    81    2
