@<TRIPOS>MOLECULE
tmp/1o9sA00.pdb
 235 230 0 0 0
SMALL
GASTEIGER

@<TRIPOS>ATOM
      1  N         15.0350    1.9910   31.0090 N.3   129  TYR129     -0.1241
      2  CA        13.8620    2.6510   31.5600 C.3   129  TYR129      0.1605
      3  C         12.9320    2.9940   30.4020 C.2   129  TYR129      0.2264
      4  O         12.8920    4.1360   29.9450 O.2   129  TYR129     -0.2867
      5  CB        14.2560    3.9240   32.3530 C.3   129  TYR129      0.0534
      6  CG        13.3010    4.3210   33.4710 C.ar  129  TYR129     -0.0201
      7  CD1       13.7120    4.3440   34.7950 C.ar  129  TYR129     -0.0009
      8  CD2       11.9880    4.6840   33.2010 C.ar  129  TYR129     -0.0009
      9  CE1       12.8480    4.7080   35.8120 C.ar  129  TYR129      0.0417
     10  CE2       11.1210    5.0480   34.2140 C.ar  129  TYR129      0.0417
     11  CZ        11.5480    5.0700   35.5160 C.ar  129  TYR129      0.1957
     12  OH        10.6750    5.4300   36.5220 O.3   129  TYR129     -0.2866
     13  N          4.7240   16.6440   30.6560 N.3   136  HIS136     -0.1241
     14  CA         4.9970   17.1350   31.9870 C.3   136  HIS136      0.1621
     15  C          3.7300   17.7550   32.5900 C.2   136  HIS136      0.2264
     16  O          3.5290   17.7400   33.7830 O.2   136  HIS136     -0.2867
     17  CB         6.1290   18.1670   31.9390 C.3   136  HIS136      0.0745
     18  CG         7.4710   17.5790   31.6080 C.ar  136  HIS136      0.0817
     19  ND1        8.3650   17.1690   32.5720 N.ar  136  HIS136     -0.2268
     20  CD2        8.0660   17.3360   30.4170 C.ar  136  HIS136      0.1154
     21  CE1        9.4540   16.6990   31.9900 C.ar  136  HIS136      0.1986
     22  NE2        9.3010   16.7960   30.6830 N.ar  136  HIS136     -0.2212
     23  N          1.3640   15.1550   34.0750 N.3   139  VAL139     -0.1231
     24  CA         2.0050   14.6500   35.2780 C.3   139  VAL139      0.1692
     25  C          1.8530   15.6510   36.4390 C.2   139  VAL139      0.2592
     26  O          1.4630   15.2730   37.5310 O.2   139  VAL139     -0.2718
     27  CB         3.5050   14.3450   35.0120 C.3   139  VAL139      0.0266
     28  CG1        4.2360   14.0630   36.2900 C.3   139  VAL139      0.0020
     29  CG2        3.6470   13.1580   34.0660 C.3   139  VAL139      0.0020
     30  N          2.1260   16.9290   36.1810 N.am  140  ASP140     -0.1974
     31  CA         2.0120   17.9820   37.1990 C.3   140  ASP140      0.1709
     32  C          0.5650   18.2160   37.6290 C.2   140  ASP140      0.2293
     33  O          0.3170   18.7690   38.7020 O.2   140  ASP140     -0.2864
     34  CB         2.5830   19.3060   36.6780 C.3   140  ASP140      0.1436
     35  CG         4.0660   19.2210   36.3430 C.2   140  ASP140      0.3671
     36  OD1        4.7310   18.2860   36.8120 O.co2 140  ASP140     -0.2456
     37  OD2        4.6600   20.0270   35.5960 O.co2 140  ASP140     -0.2456
     38  N         -1.6500   15.7830   38.1130 N.3   142  ARG142     -0.1231
     39  CA        -2.2240   14.6010   38.7510 C.3   142  ARG142      0.1694
     40  C         -1.5510   14.2660   40.0770 C.2   142  ARG142      0.2592
     41  O         -0.4550   14.7290   40.3560 O.2   142  ARG142     -0.2718
     42  CB        -2.1780   13.3970   37.8220 C.3   142  ARG142      0.0321
     43  CG        -0.8010   12.9480   37.4430 C.3   142  ARG142      0.0489
     44  CD        -0.8060   11.9640   36.2910 C.3   142  ARG142      0.2205
     45  NE         0.4390   11.2250   36.1810 N.pl3 142  ARG142     -0.0865
     46  CZ         0.6780   10.2800   35.2880 C.cat 142  ARG142      0.5346
     47  NH1       -0.2530    9.9480   34.3930 N.pl3 142  ARG142      0.1354
     48  NH2        1.8570    9.6720   35.2820 N.pl3 142  ARG142      0.1354
     49  N         -2.2540   13.4610   40.8680 N.am  143  ASP143     -0.1960
     50  CA        -1.8310   13.0250   42.2020 C.3   143  ASP143      0.1840
     51  C         -0.5140   12.2550   42.1880 C.2   143  ASP143      0.2622
     52  O         -0.2140   11.5220   41.2450 O.2   143  ASP143     -0.2715
     53  CB        -2.9300   12.1220   42.7530 C.3   143  ASP143      0.1450
     54  CG        -2.8000   11.8470   44.2210 C.2   143  ASP143      0.3671
     55  OD1       -1.8520   11.1600   44.6260 O.co2 143  ASP143     -0.2456
     56  OD2       -3.6580   12.2480   45.0310 O.co2 143  ASP143     -0.2456
     57  N          0.2690   12.3940   43.2590 N.am  144  TRP144     -0.1974
     58  CA         1.5500   11.6960   43.3250 C.3   144  TRP144      0.1640
     59  C          1.3740   10.1930   43.2790 C.2   144  TRP144      0.2290
     60  O          2.2800    9.4760   42.8830 O.2   144  TRP144     -0.2864
     61  CB         2.3220   12.0600   44.5810 C.3   144  TRP144      0.0576
     62  CG         3.2040   13.2480   44.4160 C.ar  144  TRP144      0.0006
     63  CD1        2.9930   14.4850   44.9360 C.ar  144  TRP144      0.0946
     64  CD2        4.4430   13.3200   43.6950 C.ar  144  TRP144      0.0152
     65  NE1        4.0110   15.3320   44.5730 N.ar  144  TRP144     -0.2442
     66  CE2        4.9160   14.6390   43.8120 C.ar  144  TRP144      0.0810
     67  CE3        5.1960   12.4060   42.9450 C.ar  144  TRP144      0.0012
     68  CZ2        6.1030   15.0660   43.2220 C.ar  144  TRP144      0.0191
     69  CZ3        6.3830   12.8390   42.3570 C.ar  144  TRP144      0.0001
     70  CH2        6.8220   14.1550   42.5060 C.ar  144  TRP144      0.0015
     71  N          2.4270    9.2470   40.0980 N.3   147  ASN147     -0.1225
     72  CA         3.7190    9.7480   39.6230 C.3   147  ASN147      0.1785
     73  C          4.9560    9.1120   40.2790 C.2   147  ASN147      0.2598
     74  O          6.0220    9.7400   40.3860 O.2   147  ASN147     -0.2718
     75  CB         3.7570   11.2740   39.7710 C.3   147  ASN147      0.1169
     76  CG         2.7670   11.9760   38.8470 C.2   147  ASN147      0.2627
     77  OD1        2.4540   11.4790   37.7620 O.2   147  ASN147     -0.2716
     78  ND2        2.2630   13.1320   39.2730 N.am  147  ASN147     -0.0877
     79  N          4.8210    7.8740   40.7420 N.am  148  GLY148     -0.1942
     80  CA         5.9550    7.1590   41.3090 C.3   148  GLY148      0.2014
     81  C          7.0280    6.7810   40.2910 C.2   148  GLY148      0.2639
     82  O          8.2280    6.7240   40.6280 O.2   148  GLY148     -0.2714
     83  N          6.6120    6.5290   39.0440 N.am  149  ASN149     -0.1958
     84  CA         7.5150    6.0590   37.9980 C.3   149  ASN149      0.1819
     85  C          7.7820    7.0300   36.8540 C.2   149  ASN149      0.2622
     86  O          8.4110    6.6700   35.8680 O.2   149  ASN149     -0.2715
     87  CB         6.9950    4.7360   37.4400 C.3   149  ASN149      0.1195
     88  CG         7.0700    3.6090   38.4660 C.2   149  ASN149      0.2630
     89  OD1        7.7230    3.7330   39.5190 O.2   149  ASN149     -0.2716
     90  ND2        6.4230    2.4990   38.1580 N.am  149  ASN149     -0.0877
     91  N          7.3120    8.2600   36.9750 N.am  150  THR150     -0.1937
     92  CA         7.5340    9.2430   35.9280 C.3   150  THR150      0.2028
     93  C          8.9880    9.6870   35.9500 C.2   150  THR150      0.2642
     94  O          9.5160   10.0090   37.0150 O.2   150  THR150     -0.2714
     95  CB         6.6570   10.4490   36.1560 C.3   150  THR150      0.1808
     96  OG1        6.7550   10.8510   37.5360 O.3   150  THR150     -0.2208
     97  CG2        5.1820   10.0970   35.9480 C.3   150  THR150      0.0379
     98  N          9.6060    9.7110   34.7750 N.am  151  LEU151     -0.1963
     99  CA        10.9870   10.1090   34.5960 C.3   151  LEU151      0.1728
    100  C         11.0560   11.0610   33.4210 C.2   151  LEU151      0.2616
    101  O         10.5140   10.7640   32.3340 O.2   151  LEU151     -0.2715
    102  CB        11.8560    8.8900   34.3120 C.3   151  LEU151      0.0311
    103  CG        13.2910    9.1980   33.8620 C.3   151  LEU151      0.0022
    104  CD1       14.1150    9.9140   34.9430 C.3   151  LEU151      0.0001
    105  CD2       13.9460    7.9100   33.4370 C.3   151  LEU151      0.0001
    106  N         11.6920   12.2100   33.6290 N.am  152  SER152     -0.1950
    107  CA        11.7860   13.2030   32.5630 C.3   152  SER152      0.1924
    108  C         12.8010   12.6940   31.5270 C.2   152  SER152      0.2314
    109  O         13.9680   12.3920   31.8600 O.2   152  SER152     -0.2863
    110  CB        12.1410   14.5980   33.1290 C.3   152  SER152      0.2116
    111  OG        11.2510   14.9790   34.1330 O.3   152  SER152     -0.2180
    112  N         12.9480   17.7630   27.4160 N.3   155  GLU155     -0.1245
    113  CA        12.1540   18.9150   27.8160 C.3   155  GLU155      0.1567
    114  C         10.6560   18.7050   27.5660 C.2   155  GLU155      0.2260
    115  O          9.8110   19.2200   28.3060 O.2   155  GLU155     -0.2867
    116  CB        12.6320   20.1380   27.0340 C.3   155  GLU155      0.0388
    117  CG        12.5770   21.4320   27.8210 C.3   155  GLU155      0.1160
    118  CD        13.1730   22.6030   27.0530 C.2   155  GLU155      0.3649
    119  OE1       13.2330   22.5370   25.8010 O.co2 155  GLU155     -0.2457
    120  OE2       13.5840   23.5910   27.7020 O.co2 155  GLU155     -0.2457
    121  N          7.9530   12.8630   29.1510 N.3   158  VAL158     -0.1245
    122  CA         8.0770   12.1240   30.3900 C.3   158  VAL158      0.1561
    123  C          7.8040   10.6580   30.0660 C.2   158  VAL158      0.2260
    124  O          6.8430   10.3330   29.3490 O.2   158  VAL158     -0.2867
    125  CB         7.0380   12.6030   31.4270 C.3   158  VAL158      0.0252
    126  CG1        7.0640   11.7520   32.6680 C.3   158  VAL158      0.0019
    127  CG2        7.2600   14.0590   31.7820 C.3   158  VAL158      0.0019
    128  N         12.4780    0.9910   36.1260 N.3   177  HIS177     -0.1241
    129  CA        11.5500    1.6190   37.0550 C.3   177  HIS177      0.1621
    130  C         11.5040    0.9290   38.4210 C.2   177  HIS177      0.2264
    131  O         10.7960    1.3950   39.3130 O.2   177  HIS177     -0.2867
    132  CB        10.1480    1.6020   36.4370 C.3   177  HIS177      0.0745
    133  CG         9.7120    0.2290   36.0550 C.ar  177  HIS177      0.0817
    134  ND1       10.1810   -0.4030   34.9260 N.ar  177  HIS177     -0.2268
    135  CD2        8.9180   -0.6660   36.6900 C.ar  177  HIS177      0.1154
    136  CE1        9.6480   -1.6090   34.8480 C.ar  177  HIS177      0.1986
    137  NE2        8.8850   -1.7970   35.9100 N.ar  177  HIS177     -0.2212
    138  N         14.2930    0.3660   40.2300 N.3   179  ALA179     -0.1245
    139  CA        15.4310    0.8140   41.0540 C.3   179  ALA179      0.1562
    140  C         14.9700    1.8930   42.0340 C.2   179  ALA179      0.2260
    141  O         14.3580    2.8890   41.6370 O.2   179  ALA179     -0.2867
    142  CB        16.5480    1.3370   40.1850 C.3   179  ALA179      0.0290
    143  N         23.1750    6.1440   37.9970 N.3   188  ILE188     -0.1231
    144  CA        22.5510    7.3620   37.5070 C.3   188  ILE188      0.1692
    145  C         21.6150    7.0050   36.3560 C.2   188  ILE188      0.2592
    146  O         21.7790    5.9670   35.7060 O.2   188  ILE188     -0.2718
    147  CB        23.5890    8.3520   36.9620 C.3   188  ILE188      0.0266
    148  CG1       22.9000    9.6620   36.5460 C.3   188  ILE188      0.0019
    149  CG2       24.2940    7.7620   35.7350 C.3   188  ILE188      0.0020
    150  CD1       23.7140   10.9290   36.8240 C.3   188  ILE188      0.0001
    151  N         20.6200    7.8510   36.1150 N.am  189  TYR189     -0.1976
    152  CA        19.8110    7.7190   34.9050 C.3   189  TYR189      0.1639
    153  C         20.5940    8.4240   33.7930 C.2   189  TYR189      0.2290
    154  O         21.0460    9.5560   33.9790 O.2   189  TYR189     -0.2864
    155  CB        18.4460    8.3960   35.0490 C.3   189  TYR189      0.0560
    156  CG        17.5180    7.7840   36.0750 C.ar  189  TYR189     -0.0198
    157  CD1       16.9690    8.5610   37.0790 C.ar  189  TYR189     -0.0009
    158  CD2       17.1450    6.4450   36.0090 C.ar  189  TYR189     -0.0009
    159  CE1       16.0880    8.0310   37.9890 C.ar  189  TYR189      0.0417
    160  CE2       16.2720    5.9050   36.9380 C.ar  189  TYR189      0.0417
    161  CZ        15.7420    6.7050   37.9160 C.ar  189  TYR189      0.1957
    162  OH        14.8990    6.1780   38.8640 O.3   189  TYR189     -0.2866
    163  N         15.8110    6.2230   28.6220 N.3   201  LYS201     -0.1245
    164  CA        16.9180    6.4220   29.5600 C.3   201  LYS201      0.1561
    165  C         17.3340    5.0330   30.0340 C.2   201  LYS201      0.2260
    166  O         16.6000    4.0560   29.8320 O.2   201  LYS201     -0.2867
    167  CB        16.5610    7.3480   30.7330 C.3   201  LYS201      0.0271
    168  CG        16.6180    8.8490   30.3300 C.3   201  LYS201      0.0035
    169  CD        16.6630    9.8110   31.5030 C.3   201  LYS201      0.0206
    170  CE        16.7920   11.2610   31.0030 C.3   201  LYS201      0.1093
    171  NZ        16.7020   12.2810   32.0800 N.3   201  LYS201     -0.1314
    172  N         19.4470    4.8710   42.5600 N.3   217  VAL217     -0.1231
    173  CA        19.6500    6.0710   41.7610 C.3   217  VAL217      0.1692
    174  C         19.0630    7.2720   42.4940 C.2   217  VAL217      0.2592
    175  O         18.1100    7.1380   43.2500 O.2   217  VAL217     -0.2718
    176  CB        18.9350    5.9640   40.3810 C.3   217  VAL217      0.0266
    177  CG1       19.1950    7.1920   39.5400 C.3   217  VAL217      0.0020
    178  CG2       19.3750    4.7120   39.6310 C.3   217  VAL217      0.0020
    179  N         19.6260    8.4480   42.2580 N.am  218  ALA218     -0.1966
    180  CA        19.0810    9.6710   42.8310 C.3   218  ALA218      0.1728
    181  C         17.8900   10.0750   41.9730 C.2   218  ALA218      0.2616
    182  O         18.0490   10.3520   40.7870 O.2   218  ALA218     -0.2715
    183  CB        20.1360   10.7650   42.8510 C.3   218  ALA218      0.0334
    184  N         16.6950   10.0760   42.5470 N.am  219  TYR219     -0.1960
    185  CA        15.4880   10.4210   41.7720 C.3   219  TYR219      0.1771
    186  C         15.5370   11.8630   41.2500 C.2   219  TYR219      0.2620
    187  O         14.9410   12.1870   40.2100 O.2   219  TYR219     -0.2715
    188  CB        14.2260   10.1530   42.5910 C.3   219  TYR219      0.0574
    189  CG        13.8220    8.6790   42.6490 C.ar  219  TYR219     -0.0198
    190  CD1       14.6590    7.6690   42.1720 C.ar  219  TYR219     -0.0009
    191  CD2       12.6050    8.3020   43.2010 C.ar  219  TYR219     -0.0009
    192  CE1       14.2880    6.3330   42.2530 C.ar  219  TYR219      0.0417
    193  CE2       12.2270    6.9830   43.2800 C.ar  219  TYR219      0.0417
    194  CZ        13.0620    6.0010   42.8020 C.ar  219  TYR219      0.1957
    195  OH        12.6790    4.6790   42.8800 O.3   219  TYR219     -0.2866
    196  N         16.2490   12.7300   41.9650 N.am  220  GLY220     -0.1940
    197  CA        16.4350   14.1050   41.5380 C.3   220  GLY220      0.2014
    198  C         15.1970   14.9640   41.4090 C.2   220  GLY220      0.2639
    199  O         15.0190   15.6320   40.3960 O.2   220  GLY220     -0.2714
    200  N         14.3440   14.9640   42.4250 N.am  221  TYR221     -0.1959
    201  CA        13.2000   15.8610   42.4240 C.3   221  TYR221      0.1771
    202  C         13.7210   17.2550   42.7540 C.2   221  TYR221      0.2619
    203  O         14.8410   17.3940   43.2690 O.2   221  TYR221     -0.2715
    204  CB        12.1500   15.4120   43.4400 C.3   221  TYR221      0.0574
    205  CG        11.5280   14.0840   43.0970 C.ar  221  TYR221     -0.0198
    206  CD1       11.4900   13.0460   44.0130 C.ar  221  TYR221     -0.0009
    207  CD2       10.9630   13.8670   41.8470 C.ar  221  TYR221     -0.0009
    208  CE1       10.9160   11.8280   43.6940 C.ar  221  TYR221      0.0417
    209  CE2       10.3960   12.6680   41.5300 C.ar  221  TYR221      0.0417
    210  CZ        10.3670   11.6480   42.4490 C.ar  221  TYR221      0.1957
    211  OH         9.7900   10.4460   42.0910 O.3   221  TYR221     -0.2866
    212  N         12.9220   18.2750   42.4630 N.am  222  ASP222     -0.1971
    213  CA        13.2790   19.6580   42.7260 C.3   222  ASP222      0.1709
    214  C         13.1280   19.9640   44.2140 C.2   222  ASP222      0.2293
    215  O         12.0200   19.9930   44.7500 O.2   222  ASP222     -0.2864
    216  CB        12.4130   20.6000   41.9060 C.3   222  ASP222      0.1436
    217  CG        12.9160   22.0290   41.9160 C.2   222  ASP222      0.3671
    218  OD1       13.7090   22.3990   42.8040 O.co2 222  ASP222     -0.2456
    219  OD2       12.5390   22.8730   41.0700 O.co2 222  ASP222     -0.2456
    220  N         10.7020   27.4600   42.5390 N.2   226  PRO226     -0.2584
    221  CA        10.7950   28.9240   42.5140 C.3   226  PRO226      0.1895
    222  C          9.6920   29.3430   43.3620 C.2   226  PRO226      0.2359
    223  O          9.6330   30.3930   44.0220 O.2   226  PRO226     -0.2858
    224  CB        10.4130   29.2980   41.0830 C.2   226  PRO226      0.0071
    225  CG        10.0910   28.0700   40.3860 C.2   226  PRO226      0.0180
    226  CD        10.2550   26.9120   41.2640 C.2   226  PRO226      0.0937
    227  N          9.2270   19.6980   45.6690 N.3   232  GLU232     -0.1245
    228  CA         8.0630   19.0730   45.0470 C.3   232  GLU232      0.1567
    229  C          8.4480   17.6090   44.9020 C.2   232  GLU232      0.2260
    230  O          9.1380   17.2140   43.9680 O.2   232  GLU232     -0.2867
    231  CB         7.7280   19.6950   43.7000 C.3   232  GLU232      0.0388
    232  CG         6.2390   20.0270   43.5150 C.3   232  GLU232      0.1160
    233  CD         5.3010   19.2580   44.4470 C.2   232  GLU232      0.3649
    234  OE1        5.0990   18.0420   44.2480 O.co2 232  GLU232     -0.2457
    235  OE2        4.7490   19.8790   45.3860 O.co2 232  GLU232     -0.2457
@<TRIPOS>BOND
     1   119   118   ar
     2   116   113    1
     3   116   117    1
     4   118   120   ar
     5   118   117    1
     6   112   113    1
     7   114   113    1
     8   114   115    2
     9   163   164    1
    10   121   122    1
    11   124   123    2
    12   164   165    1
    13   164   167    1
    14   166   165    2
    15     4     3    2
    16   123   122    1
    17   168   167    1
    18   168   169    1
    19   122   125    1
    20     3     2    1
    21    20    22   ar
    22    20    18   ar
    23    13    14    1
    24    22    21   ar
    25   170   169    1
    26   170   171    1
    27     1     2    1
    28   125   127    1
    29   125   126    1
    30   108   109    2
    31   108   107    1
    32     2     5    1
    33    18    17    1
    34    18    19   ar
    35    17    14    1
    36    14    15    1
    37    21    19   ar
    38   101   100    2
    39     5     6    1
    40   107   110    1
    41   107   106    1
    42    15    16    2
    43   110   111    1
    44     8     6   ar
    45     8    10   ar
    46   100   106   am
    47   100    99    1
    48   105   103    1
    49     6     7   ar
    50   153   154    2
    51   153   152    1
    52   103   102    1
    53   103   104    1
    54    29    27    1
    55    23    24    1
    56    10    11   ar
    57   102    99    1
    58    47    46    1
    59    99    98    1
    60    98    93   am
    61     7     9   ar
    62   136   134   ar
    63   136   137   ar
    64   152   155    1
    65   152   151    1
    66   134   133   ar
    67    27    24    1
    68    27    28    1
    69   155   156    1
    70    24    25    1
    71    48    46    1
    72    46    45    2
    73    11     9   ar
    74    11    12    1
    75    37    35   ar
    76   146   145    2
    77   149   147    1
    78    86    85    2
    79   137   135   ar
    80    92    93    1
    81    92    95    1
    82    92    91    1
    83    97    95    1
    84    93    94    2
    85   158   156   ar
    86   158   160   ar
    87   133   132    1
    88   133   135   ar
    89   156   157   ar
    90   151   145   am
    91   128   129    1
    92    95    96    1
    93    45    44    1
    94    30    25   am
    95    30    31    1
    96    44    43    1
    97    35    34    1
    98    35    36   ar
    99   145   144    1
   100   132   129    1
   101    25    26    2
   102   148   150    1
   103   148   147    1
   104    34    31    1
   105    85    91   am
   106    85    84    1
   107   160   161   ar
   108   147   144    1
   109   129   130    1
   110   157   159   ar
   111    31    32    1
   112    87    84    1
   113    87    88    1
   114    43    42    1
   115   144   143    1
   116    32    33    2
   117    77    76    2
   118    42    39    1
   119   161   159   ar
   120   161   162    1
   121    84    83    1
   122    38    39    1
   123    90    88   am
   124   130   131    2
   125    88    89    2
   126    39    40    1
   127    76    78   am
   128    76    75    1
   129    83    81   am
   130   177   176    1
   131    72    75    1
   132    72    71    1
   133    72    73    1
   134   178   176    1
   135    40    41    2
   136    40    49   am
   137   142   139    1
   138   187   186    2
   139   138   139    1
   140    73    74    2
   141    73    79   am
   142    81    82    2
   143    81    80    1
   144   176   173    1
   145   225   224    2
   146   225   226    1
   147   199   198    2
   148    79    80    1
   149   182   181    2
   150    49    50    1
   151   139   140    1
   152   219   217   ar
   153   224   221    1
   154    52    51    2
   155   186   185    1
   156   186   196   am
   157   226   220    2
   158   198   197    1
   159   198   200   am
   160   209   207   ar
   161   209   210   ar
   162   197   196    1
   163   141   140    2
   164   173   174    1
   165   173   172    1
   166   185   184    1
   167   185   188    1
   168   207   205   ar
   169   216   217    1
   170   216   213    1
   171   217   218   ar
   172   181   184   am
   173   181   180    1
   174   211   210    1
   175   190   192   ar
   176   190   189   ar
   177    51    50    1
   178    51    57   am
   179    50    53    1
   180   192   194   ar
   181   179   174   am
   182   179   180    1
   183    69    70   ar
   184    69    67   ar
   185   201   200    1
   186   201   202    1
   187   201   204    1
   188   210   208   ar
   189   212   213    1
   190   212   202   am
   191   174   175    2
   192    70    68   ar
   193   221   220    1
   194   221   222    1
   195   188   189    1
   196   189   191   ar
   197   213   214    1
   198    53    54    1
   199   202   203    2
   200   194   195    1
   201   194   193   ar
   202   180   183    1
   203    60    59    2
   204    67    64   ar
   205   205   204    1
   206   205   206   ar
   207   191   193   ar
   208    68    66   ar
   209    57    58    1
   210    59    58    1
   211    58    61    1
   212   222   223    2
   213   232   231    1
   214   232   233    1
   215   208   206   ar
   216    64    66   ar
   217    64    62   ar
   218   231   228    1
   219    66    65   ar
   220   230   229    2
   221   214   215    2
   222    54    55   ar
   223    54    56   ar
   224   234   233   ar
   225    62    61    1
   226    62    63   ar
   227   233   235   ar
   228    65    63   ar
   229   229   228    1
   230   228   227    1
