@<TRIPOS>MOLECULE
tmp/1o9tB00.pdb
 77 70 0 0 0
SMALL
GASTEIGER

@<TRIPOS>ATOM
      1  N         -0.9040   16.0060   49.6620 N.3    38  LYS38      -0.1231
      2  CA        -0.5570   17.3960   49.4310 C.3    38  LYS38       0.1693
      3  C          0.9210   17.5590   49.7430 C.2    38  LYS38       0.2592
      4  O          1.3360   17.4870   50.8990 O.2    38  LYS38      -0.2718
      5  CB        -1.4090   18.3230   50.2960 C.3    38  LYS38       0.0285
      6  CG        -2.6060   18.9270   49.5620 C.3    38  LYS38       0.0035
      7  CD        -3.5370   17.8570   48.9950 C.3    38  LYS38       0.0206
      8  CE        -4.7020   18.4740   48.2260 C.3    38  LYS38       0.1093
      9  NZ        -5.6090   17.4260   47.6790 N.3    38  LYS38      -0.1314
     10  N          1.7130   17.7460   48.6930 N.am   39  VAL39      -0.1966
     11  CA         3.1540   17.9000   48.8310 C.3    39  VAL39       0.1727
     12  C          3.6640   19.2920   48.4870 C.2    39  VAL39       0.2616
     13  O          3.3570   19.8550   47.4330 O.2    39  VAL39      -0.2715
     14  CB         3.9160   16.8450   47.9990 C.3    39  VAL39       0.0290
     15  CG1        5.4200   17.0460   48.1200 C.3    39  VAL39       0.0023
     16  CG2        3.5390   15.4550   48.4690 C.3    39  VAL39       0.0023
     17  N          4.4670   19.8200   49.3990 N.am   40  ALA40      -0.1963
     18  CA         5.0660   21.1320   49.2760 C.3    40  ALA40       0.1728
     19  C          6.3750   21.0340   50.0410 C.2    40  ALA40       0.2616
     20  O          6.4320   21.3400   51.2350 O.2    40  ALA40      -0.2715
     21  CB         4.1630   22.1700   49.9030 C.3    40  ALA40       0.0334
     22  N          7.4100   20.5430   49.3690 N.am   41  CYS41      -0.1968
     23  CA         8.7080   20.3970   50.0080 C.3    41  CYS41       0.1712
     24  C          9.8330   20.8510   49.1010 C.2    41  CYS41       0.2296
     25  O          9.6480   21.0060   47.8970 O.2    41  CYS41      -0.2864
     26  CB         8.9400   18.9420   50.4210 C.3    41  CYS41       0.0983
     27  SG         9.1620   17.7990   49.0410 S.3    41  CYS41      -0.0798
     28  N          6.2290   21.0850   54.0290 N.3    55  GLU55      -0.1245
     29  CA         4.9440   20.8590   54.6720 C.3    55  GLU55       0.1567
     30  C          4.1500   19.9460   53.7580 C.2    55  GLU55       0.2260
     31  O          3.7620   20.3480   52.6580 O.2    55  GLU55      -0.2867
     32  CB         4.1950   22.1840   54.8160 C.3    55  GLU55       0.0388
     33  CG         3.8510   22.5880   56.2410 C.3    55  GLU55       0.1160
     34  CD         2.6570   21.8380   56.8020 C.2    55  GLU55       0.3649
     35  OE1        1.5640   21.8960   56.1880 O.co2  55  GLU55      -0.2457
     36  OE2        2.8100   21.2070   57.8730 O.co2  55  GLU55      -0.2457
     37  N          0.8470   17.3280   53.6730 N.3    57  THR57      -0.1218
     38  CA        -0.3340   16.7320   54.2650 C.3    57  THR57       0.1862
     39  C         -0.6420   15.4840   53.4560 C.2    57  THR57       0.2287
     40  O         -1.1430   15.5700   52.3340 O.2    57  THR57      -0.2866
     41  CB        -1.5320   17.6980   54.1880 C.3    57  THR57       0.1770
     42  OG1       -1.2590   18.8630   54.9760 O.3    57  THR57      -0.2211
     43  CG2       -2.7970   17.0370   54.6940 C.3    57  THR57       0.0375
     44  N         -4.2540   30.8760   43.7950 N.3   107  ASP107     -0.1239
     45  CA        -3.3540   31.9810   43.5330 C.3   107  ASP107      0.1674
     46  C         -3.5240   32.5530   42.1270 C.2   107  ASP107      0.2266
     47  O         -3.3250   31.8550   41.1320 O.2   107  ASP107     -0.2867
     48  CB        -1.8790   31.6280   43.7710 C.3   107  ASP107      0.1410
     49  CG        -1.6260   30.8640   45.0670 C.2   107  ASP107      0.3668
     50  OD1       -2.0640   31.3300   46.1450 O.co2 107  ASP107     -0.2456
     51  OD2       -1.0190   29.7650   44.9900 O.co2 107  ASP107     -0.2456
     52  N          6.4270   20.5670   44.2590 N.3   258  LYS258     -0.1245
     53  CA         5.0280   20.9630   44.3180 C.3   258  LYS258      0.1561
     54  C          4.1410   19.9140   43.6640 C.2   258  LYS258      0.2260
     55  O          4.4570   19.4130   42.5870 O.2   258  LYS258     -0.2867
     56  CB         4.8460   22.3080   43.6150 C.3   258  LYS258      0.0271
     57  CG         5.6920   23.4230   44.2080 C.3   258  LYS258      0.0035
     58  CD         5.6200   24.6880   43.3730 C.3   258  LYS258      0.0206
     59  CE         6.6020   25.7430   43.9100 C.3   258  LYS258      0.1093
     60  NZ         6.6170   26.9430   43.0560 N.3   258  LYS258     -0.1314
     61  N         -0.9530   22.7010   42.5070 N.3   262  LYS262     -0.1245
     62  CA        -0.3730   24.0230   42.2980 C.3   262  LYS262      0.1561
     63  C         -0.3920   24.3450   40.8130 C.2   262  LYS262      0.2260
     64  O          0.2590   23.6660   40.0160 O.2   262  LYS262     -0.2867
     65  CB         1.0690   24.0830   42.8060 C.3   262  LYS262      0.0271
     66  CG         1.2180   24.3580   44.2950 C.3   262  LYS262      0.0035
     67  CD         0.8220   23.1620   45.1340 C.3   262  LYS262      0.0206
     68  CE         1.0640   23.4080   46.6130 C.3   262  LYS262      0.1093
     69  NZ         0.6960   22.2150   47.4270 N.3   262  LYS262     -0.1314
     70  N          1.1450   26.3680   39.2160 N.3   264  ASP264     -0.1239
     71  CA         2.4750   26.6360   38.6780 C.3   264  ASP264      0.1674
     72  C          3.0020   25.4700   37.8620 C.2   264  ASP264      0.2266
     73  O          3.7100   25.6600   36.8800 O.2   264  ASP264     -0.2867
     74  CB         3.4660   26.9450   39.7970 C.3   264  ASP264      0.1410
     75  CG         3.3820   28.3750   40.2700 C.2   264  ASP264      0.3668
     76  OD1        2.9750   29.2470   39.4670 O.co2 264  ASP264     -0.2456
     77  OD2        3.7380   28.6250   41.4410 O.co2 264  ASP264     -0.2456
@<TRIPOS>BOND
     1    73    72    2
     2    72    71    1
     3    71    70    1
     4    71    74    1
     5    76    75   ar
     6    74    75    1
     7    64    63    2
     8    75    77   ar
     9    63    62    1
    10    47    46    2
    11    46    45    1
    12    62    61    1
    13    62    65    1
    14    55    54    2
    15    65    66    1
    16    60    59    1
    17    58    59    1
    18    58    57    1
    19    45    48    1
    20    45    44    1
    21    56    57    1
    22    56    53    1
    23    54    53    1
    24    48    49    1
    25    52    53    1
    26    66    67    1
    27    51    49   ar
    28    49    50   ar
    29    67    68    1
    30    68    69    1
    31    13    12    2
    32     9     8    1
    33    25    24    2
    34    14    15    1
    35    14    16    1
    36    14    11    1
    37     8     7    1
    38    12    11    1
    39    12    17   am
    40    10    11    1
    41    10     3   am
    42     7     6    1
    43    27    26    1
    44    24    23    1
    45    18    17    1
    46    18    21    1
    47    18    19    1
    48    22    23    1
    49    22    19   am
    50     2     1    1
    51     2     3    1
    52     2     5    1
    53     6     5    1
    54     3     4    2
    55    23    26    1
    56    19    20    2
    57    40    39    2
    58    31    30    2
    59    39    38    1
    60    37    38    1
    61    30    29    1
    62    28    29    1
    63    41    38    1
    64    41    43    1
    65    41    42    1
    66    29    32    1
    67    32    33    1
    68    35    34   ar
    69    33    34    1
    70    34    36   ar
