@<TRIPOS>MOLECULE
tmp/1o9tA00.pdb
 86 82 0 0 0
SMALL
GASTEIGER

@<TRIPOS>ATOM
      1  N         10.6610   38.6660   52.3550 N.3    14  HIS14      -0.1227
      2  CA        10.4830   37.3670   51.7320 C.3    14  HIS14       0.1737
      3  C         11.7770   36.5810   51.8920 C.2    14  HIS14       0.2438
      4  O         12.8610   37.0800   51.5810 O.2    14  HIS14      -0.2733
      5  CB        10.1060   37.5210   50.2580 C.3    14  HIS14       0.0758
      6  CG         9.6610   36.2470   49.6110 C.ar   14  HIS14       0.0818
      7  ND1       10.5460   35.3420   49.0720 N.ar   14  HIS14      -0.2268
      8  CD2        8.4250   35.7320   49.4080 C.ar   14  HIS14       0.1154
      9  CE1        9.8790   34.3250   48.5620 C.ar   14  HIS14       0.1986
     10  NE2        8.5890   34.5350   48.7520 N.ar   14  HIS14      -0.2212
     11  N         11.6810   35.3400   52.3910 N.am   15  PRO15      -0.2729
     12  CA        12.8210   34.4530   52.6150 C.3    15  PRO15       0.1401
     13  C         13.8710   34.5110   51.5160 C.2    15  PRO15       0.2269
     14  O         15.0490   34.7420   51.7950 O.2    15  PRO15      -0.2865
     15  CB        12.1570   33.0850   52.7080 C.3    15  PRO15       0.0296
     16  CG        10.9070   33.4040   53.4080 C.3    15  PRO15       0.0237
     17  CD        10.4240   34.6160   52.6490 C.3    15  PRO15       0.0939
     18  N          7.7860   40.9030   55.4730 N.3   152  ASP152     -0.1225
     19  CA         7.4020   39.9730   54.4090 C.3   152  ASP152      0.1805
     20  C          6.0900   40.3190   53.7210 C.2   152  ASP152      0.2598
     21  O          5.0600   40.4770   54.3690 O.2   152  ASP152     -0.2718
     22  CB         7.3500   38.5410   54.9560 C.3   152  ASP152      0.1424
     23  CG         7.2460   37.4880   53.8580 C.2   152  ASP152      0.3668
     24  OD1        7.4210   37.8230   52.6700 O.co2 152  ASP152     -0.2456
     25  OD2        7.0020   36.3060   54.1860 O.co2 152  ASP152     -0.2456
     26  N          6.1430   40.3860   52.3960 N.am  153  SER153     -0.1938
     27  CA         4.9800   40.6930   51.5730 C.3   153  SER153      0.2055
     28  C          5.1250   40.1220   50.1690 C.2   153  SER153      0.2642
     29  O          6.2270   39.7890   49.7340 O.2   153  SER153     -0.2714
     30  CB         4.7950   42.2030   51.4670 C.3   153  SER153      0.2130
     31  OG         5.8920   42.7910   50.7940 O.3   153  SER153     -0.2179
     32  N          4.0020   40.0270   49.4640 N.am  154  LYS154     -0.1977
     33  CA         3.9670   39.5250   48.0950 C.3   154  LYS154      0.1596
     34  C          2.9440   40.3500   47.3420 C.2   154  LYS154      0.2287
     35  O          1.8760   40.6570   47.8660 O.2   154  LYS154     -0.2864
     36  CB         3.5710   38.0510   48.0530 C.3   154  LYS154      0.0298
     37  CG         3.4780   37.4740   46.6420 C.3   154  LYS154      0.0038
     38  CD         2.9810   36.0400   46.6720 C.3   154  LYS154      0.0206
     39  CE         2.7750   35.4910   45.2690 C.3   154  LYS154      0.1093
     40  NZ         2.0880   34.1660   45.2740 N.3   154  LYS154     -0.1314
     41  N         -0.4210   40.5850   49.6840 N.3   179  SER179     -0.1217
     42  CA        -0.3720   39.9110   50.9680 C.3   179  SER179      0.1889
     43  C          0.8180   40.4620   51.7280 C.2   179  SER179      0.2288
     44  O          1.9220   40.5290   51.1960 O.2   179  SER179     -0.2866
     45  CB        -0.1960   38.4070   50.7690 C.3   179  SER179      0.2089
     46  OG        -1.2540   37.8680   49.9980 O.3   179  SER179     -0.2183
     47  N         -5.6310   35.0370   51.9700 N.3   220  SER220     -0.1217
     48  CA        -5.5130   33.8920   52.8590 C.3   220  SER220      0.1889
     49  C         -5.7370   34.2910   54.3120 C.2   220  SER220      0.2288
     50  O         -5.2640   33.6110   55.2290 O.2   220  SER220     -0.2866
     51  CB        -4.1270   33.2640   52.7050 C.3   220  SER220      0.2089
     52  OG        -3.8110   33.0460   51.3360 O.3   220  SER220     -0.2183
     53  N         -5.0790   35.8170   57.7100 N.3   222  ARG222     -0.1231
     54  CA        -3.9540   36.3220   58.4890 C.3   222  ARG222      0.1694
     55  C         -2.5940   35.7960   57.9990 C.2   222  ARG222      0.2592
     56  O         -2.4980   34.7380   57.3720 O.2   222  ARG222     -0.2718
     57  CB        -4.1730   36.0070   59.9710 C.3   222  ARG222      0.0321
     58  CG        -5.5320   36.4950   60.4810 C.3   222  ARG222      0.0489
     59  CD        -5.4800   37.9090   61.0610 C.3   222  ARG222      0.2205
     60  NE        -4.7090   37.9730   62.3060 N.pl3 222  ARG222     -0.0865
     61  CZ        -4.5560   39.0760   63.0450 C.cat 222  ARG222      0.5346
     62  NH1       -5.1180   40.2340   62.6800 N.pl3 222  ARG222      0.1354
     63  NH2       -3.8450   39.1130   64.1790 N.pl3 222  ARG222      0.1354
     64  N         -1.6060   36.6110   58.3290 N.am  223  PHE223     -0.1976
     65  CA        -0.1790   36.4290   57.9980 C.3   223  PHE223      0.1639
     66  C          0.5760   37.1850   59.0990 C.2   223  PHE223      0.2290
     67  O          1.2170   38.2090   58.8490 O.2   223  PHE223     -0.2864
     68  CB         0.0420   37.0460   56.6120 C.3   223  PHE223      0.0560
     69  CG         1.4570   36.9070   56.0620 C.ar  223  PHE223     -0.0200
     70  CD1        2.5110   36.5300   56.9000 C.ar  223  PHE223     -0.0042
     71  CD2        1.6910   37.1660   54.7080 C.ar  223  PHE223     -0.0042
     72  CE1        3.8060   36.4080   56.3770 C.ar  223  PHE223     -0.0003
     73  CE2        2.9830   37.0430   54.1860 C.ar  223  PHE223     -0.0003
     74  CZ         4.0410   36.6640   55.0200 C.ar  223  PHE223     -0.0000
     75  N          4.0780   34.7290   60.3000 N.3   226  GLY226     -0.1210
     76  CA         4.6130   34.1300   59.0940 C.3   226  GLY226      0.1956
     77  C          6.1070   34.3850   59.0020 C.2   226  GLY226      0.2612
     78  O          6.9120   33.4850   59.2560 O.2   226  GLY226     -0.2717
     79  N          6.4710   35.6300   58.6980 N.am  227  GLY227     -0.1956
     80  CA         7.8720   36.0020   58.6000 C.3   227  GLY227      0.1869
     81  C          8.6770   35.2010   57.5980 C.2   227  GLY227      0.2309
     82  O          8.1130   34.3950   56.8590 O.2   227  GLY227     -0.2863
     83  N          8.8020   30.2060   55.2730 N.3   230  GLY230     -0.1225
     84  CA         8.3540   29.5930   54.0290 C.3   230  GLY230      0.1811
     85  C          9.1560   28.3640   53.7280 C.2   230  GLY230      0.2280
     86  O          9.6580   28.1610   52.6160 O.2   230  GLY230     -0.2866
@<TRIPOS>BOND
     1    39    40    1
     2    39    38    1
     3    37    38    1
     4    37    36    1
     5    34    35    2
     6    34    33    1
     7    36    33    1
     8    33    32    1
     9     9    10   ar
    10     9     7   ar
    11    10     8   ar
    12     7     6   ar
    13     8     6   ar
    14    32    28   am
    15     6     5    1
    16    41    42    1
    17    29    28    2
    18    46    45    1
    19    28    27    1
    20     5     2    1
    21    45    42    1
    22    31    30    1
    23    42    43    1
    24    44    43    2
    25    52    51    1
    26    30    27    1
    27    13    14    2
    28    13    12    1
    29    27    26    1
    30     4     3    2
    31     2     3    1
    32     2     1    1
    33     3    11   am
    34    47    48    1
    35    11    12    1
    36    11    17    1
    37    26    20   am
    38    12    15    1
    39    86    85    2
    40    17    16    1
    41    24    23   ar
    42    51    48    1
    43    15    16    1
    44    48    49    1
    45    20    21    2
    46    20    19    1
    47    85    84    1
    48    23    25   ar
    49    23    22    1
    50    84    83    1
    51    73    71   ar
    52    73    74   ar
    53    49    50    2
    54    19    22    1
    55    19    18    1
    56    71    69   ar
    57    74    72   ar
    58    69    68    1
    59    69    70   ar
    60    72    70   ar
    61    68    65    1
    62    82    81    2
    63    56    55    2
    64    81    80    1
    65    53    54    1
    66    65    64    1
    67    65    66    1
    68    55    64   am
    69    55    54    1
    70    54    57    1
    71    80    79    1
    72    79    77   am
    73    67    66    2
    74    77    76    1
    75    77    78    2
    76    76    75    1
    77    57    58    1
    78    58    59    1
    79    59    60    1
    80    60    61    2
    81    62    61    1
    82    61    63    1
